<?xml version="1.0" ?>
<!-- Generated by MOSAIC scenario-convert 18.0 -->
<routes>
	<vType id="default" length="7.5" maxSpeed="50" minGap="2.0" carFollowModel="Krauss" accel="0.80" decel="4.5" sigma="0.5" tau="1"/>
	<route id="1462" edges="19343212_201009101_201009095 19346853_201009095_201030186 19345220_201030186_201001377 295037238_201001377_201001388 295037238_201001388_201001399 295037238_201001399_201001404 976882051_201001404_201045548 976882051_201045548_201045577 976882051_201045577_201015572 661055482_201015572_201015575 92385002_201015575_201015604 92385002_201015604_6755735045 92385002_6755735045_201015637 92385002_201015637_201015695 92385002_201015695_201015710 92385002_201015710_201015507" />
	<route id="1461" edges="19343212_201009101_201009095 19346853_201009095_201030186 19345220_201030186_201001377 295037238_201001377_201001388 295037238_201001388_201001399 295037238_201001399_201001404 976882052_201001404_201001412" />
	<route id="1460" edges="19343212_201009101_201009095 19346853_201009095_201037413 19346853_201037413_201051171 19346853_201051171_201051157 19346853_201051157_201032342 19346040_201032342_201041337 576712189_201041337_201026814 19344913_201026814_201026817" />
	<route id="1459" edges="19343212_201009101_201009095 19346853_201009095_201037413 19346853_201037413_201051171 19346853_201051171_201051157 19346853_201051157_201032342 19346853_201032342_201034455 19346853_201034455_201037938 19345807_201037938_201025008 19345807_201025008_201001310 661055483_201001310_201037940 19346514_201037940_201047008 613398735_201047008_201047011" />
	<route id="1458" edges="19343212_201009101_201009095 19346853_201009095_201030186 19346853_201030186_201001602 19346853_201001602_201044481 19346853_201044481_201049680 19346853_201049680_201014645 19346853_201014645_201051214 19346976_201051214_201051231" />
	<route id="1457" edges="19343212_201009101_201009095 19346853_201009095_201030186 19346853_201030186_201001602 19346853_201001602_201044481 19346853_201044481_201049680 19346853_201049680_201014645 19346853_201014645_201051214 19346976_201051214_201037211 19346976_201037211_201040545 19346976_201040545_201045519 19346373_201045519_201045509" />
	<route id="1456" edges="19343212_201009101_201009095 19346853_201009095_201037413 19346853_201037413_201051171 19346853_201051171_201051157 19346853_201051157_201032342 19346853_201032342_201034455 19346853_201034455_201037938 19345807_201037938_201033005 19345807_201033005_201001851 19342595_201001851_201001855 715003096_201001855_201001860 715003094_201001860_201001870 19347030_201001870_201011602 19343520_201011602_201011615" />
	<route id="1455" edges="19343212_201009101_201009095 19346853_201009095_201037413 19346853_201037413_201051171 19346853_201051171_201051157 19346853_201051157_201032342 19346853_201032342_201034455 19346853_201034455_201037938 19345807_201037938_201033005 19345439_201033005_201033020 19345439_201033020_201033024 19345439_201033024_201033028 19347030_201033028_201044808 19346297_201044808_201044811" />
	<route id="1454" edges="19343212_201009101_201009095 19346853_201009095_201030186 19345220_201030186_201001377 295037238_201001377_201001388 295037238_201001388_201001399 295037238_201001399_201001404 976882051_201001404_201045548 976882051_201045548_201045577 976882051_201045577_201015572 661055482_201015572_201015575 19346349_201015575_201045284 19346743_201045284_201049707" />
	<route id="1453" edges="19343212_201009101_201009095 19346853_201009095_201037413 19346853_201037413_201051171 19346853_201051171_201051157 19346853_201051157_201032342 19346853_201032342_201034455 19346853_201034455_201037938 19345807_201037938_201025008 19345807_201025008_201001310 661055483_201001310_201037940 661055483_201037940_201037944 661055483_201037944_201037948 661055483_201037948_201037952 661055483_201037952_201015229 661055483_201015229_201037960 661055483_201037960_201037970 661055483_201037970_201014995 661055483_201014995_201022348 661055483_201022348_201037977 661055483_201037977_201037990 19346349_201037990_201045256 19346349_201045256_201009688 19346349_201009688_201032855 19346349_201032855_201045259 19346349_201045259_201030085 19345209_201030085_201030081" />
	<route id="1452" edges="19343212_201009101_201009095 19346853_201009095_201037413 19346853_201037413_201051171 19346853_201051171_201051157 19346853_201051157_201032342 19346853_201032342_201034455 19346853_201034455_201037938 19345807_201037938_201033005 19345439_201033005_201033020 19345439_201033020_201033024 19345439_201033024_201033028 19345439_201033028_201033040 19347099_201033040_8548256579" />
	<route id="1473" edges="19346943_201052214_201037933 19345807_201037933_201001851 19345807_201001851_201033005 19345807_201033005_201037938 19345807_201037938_201025008 19345807_201025008_201001310 661055483_201001310_201037940 661055483_201037940_201037944 661055483_201037944_201037948 661055483_201037948_201037952 661055483_201037952_201015229 661055483_201015229_201037960 661055483_201037960_201037970 661055483_201037970_201014995 661055483_201014995_201022348 19344486_201022348_201022353 19344486_201022353_201022356 19344486_201022356_201022360 19347030_201022360_201008621 19347030_201008621_201040778 19347030_201040778_201053200" />
	<route id="1472" edges="19346943_201052214_201037933 19345807_201037933_201001851 19345807_201001851_201033005 19345807_201033005_201037938 19345807_201037938_201025008 19345807_201025008_201001310 19342570_201001310_201001328 19342570_201001328_201004696 295037238_201004696_201001340 295037238_201001340_201001346 295037238_201001346_201001354 295037238_201001354_201001358 295037238_201001358_201001362 295037238_201001362_201001366 295037238_201001366_201001370 295037238_201001370_201001377 295037238_201001377_201001388 295037238_201001388_201001399 295037238_201001399_201001404 976882051_201001404_201045548 976882051_201045548_201045577 976882051_201045577_201015572 661055482_201015572_201015575 19345355_201015575_201032189" />
	<route id="1471" edges="19343212_201009101_201009095 19346853_201009095_201037413 19345763_201037413_201001362 295037238_201001362_201001358 19345972_201001358_201040442 19345972_201040442_201015220 19345972_201015220_6766419673" />
	<route id="1470" edges="19343212_201009101_201009095 19346853_201009095_201030186 19346853_201030186_201001602 19342576_201001602_201001616 19342576_201001616_201001633" />
	<route id="1" edges="19345355_201032189_201015575 19346349_201015575_201045284 19346349_201045284_201032214 19346349_201032214_201019250 19346349_201019250_201030085 19346349_201030085_201045259 19346349_201045259_201032855 19346349_201032855_201009688 19346349_201009688_201045256 19346349_201045256_201037990 661055483_201037990_201037977 19347062_201037977_201032315 19347062_201032315_201008632 19343161_201008632_201008621 19347030_201008621_201040778 19347030_201040778_201053200" />
	<route id="1469" edges="19343212_201009101_201009095 19346853_201009095_201037413 19346853_201037413_201051171 19346853_201051171_201051157 19346853_201051157_201032342 19345374_201032342_201001340 295037238_201001340_201004696 19342570_201004696_201001328 19347235_201001328_201041742 579487029_201041742_201015236" />
	<route id="2" edges="19345355_201032189_201015575 19346349_201015575_201045284 19346349_201045284_201032214 19346349_201032214_201019250 19346349_201019250_201030085 19346349_201030085_201045259 692239767_201045259_201055982" />
	<route id="1468" edges="19343212_201009101_201009095 19346853_201009095_201037413 19346853_201037413_201051171 19346853_201051171_201051157 19346853_201051157_201032342 19346853_201032342_201034455 19346853_201034455_201037938 19345807_201037938_201025008 19345807_201025008_201001310 661055483_201001310_201037940 661055483_201037940_201037944 661055483_201037944_201037948 661055483_201037948_201037952 661055483_201037952_201015229 661055483_201015229_201037960 19347406_201037960_201032309 19347406_201032309_201045231 19347406_201045231_201027146 19347406_201027146_201053195 929513871_201053195_8620388691" />
	<route id="3" edges="19345355_201032189_201015575 19346349_201015575_201045284 19346349_201045284_201032214 19346349_201032214_201019250 19346349_201019250_201030085 19346349_201030085_201045259 19346349_201045259_201032855 19346349_201032855_201009688 19346349_201009688_201045256 19346349_201045256_201037990 661055483_201037990_201037977 19347062_201037977_201032315 19347062_201032315_201008632 19343161_201008632_201008621 19347030_201008621_201040778 19346007_201040778_201040805" />
	<route id="1467" edges="19343212_201009101_201009095 19346853_201009095_201037413 19346853_201037413_201051171 19346853_201051171_201051157 19346853_201051157_201032342 19346853_201032342_201034455 19346853_201034455_201037938 19345807_201037938_201033005 19345439_201033005_201033020 19345439_201033020_201033024 19345439_201033024_201033028 19347030_201033028_201025029 613398736_201025029_201025037" />
	<route id="4" edges="19345355_201032189_201015575 19346349_201015575_201045284 19346349_201045284_201032214 19345358_201032214_201032227" />
	<route id="1466" edges="19343212_201009101_201009095 19346853_201009095_201030186 19345220_201030186_201001377 295037238_201001377_201001388 19346038_201001388_201041328" />
	<route id="5" edges="19345355_201032189_201015575 661055482_201015575_201015572 92384070_201015572_201015567" />
	<route id="1465" edges="19343212_201009101_201009095 19346853_201009095_201037413 19346853_201037413_201051171 19346853_201051171_201051157 19346853_201051157_201032342 19346040_201032342_201041337 576712189_201041337_201026814 576712189_201026814_201044957" />
	<route id="6" edges="19345355_201032189_201015575 19346349_201015575_201045284 19346349_201045284_201032214 19346349_201032214_201019250 19346349_201019250_201030085 19346349_201030085_201045259 19346349_201045259_201032855 19345425_201032855_201032862" />
	<route id="1464" edges="19343212_201009101_201009095 19346853_201009095_201037413 19345763_201037413_201001362 295037238_201001362_201001366 19344187_201001366_201019146" />
	<route id="7" edges="19345355_201032189_201015575 661055482_201015575_201015572 92384070_201015572_201015567 92384070_201015567_201015558 92384070_201015558_201001412 976882052_201001412_201001404 295037238_201001404_201001399 295037238_201001399_201001388 295037238_201001388_201001377 295037238_201001377_201001370 19344015_201001370_201017581" />
	<route id="1463" edges="19343212_201009101_201009095 19346853_201009095_201037413 19346853_201037413_201051171 19346853_201051171_201051157 19346853_201051157_201032342 19346853_201032342_201034455 19346853_201034455_201037938 19345807_201037938_201033005 19345807_201033005_201001851 19345807_201001851_201037933 19346943_201037933_201052214" />
	<route id="8" edges="19345355_201032189_201015575 661055482_201015575_201015572 92384070_201015572_201015567 92384070_201015567_201015558 92384070_201015558_201001412 976882052_201001412_201001404 295037238_201001404_201001399 19345977_201001399_201038281 19345977_201038281_201040545 19346976_201040545_201045519 19347357_201045519_201057259" />
	<route id="9" edges="19345355_201032189_201015575 661055482_201015575_201015572 92384070_201015572_201015567 92384070_201015567_201015558 92384070_201015558_201001412 976882052_201001412_201001404 295037238_201001404_201001399 295037238_201001399_201001388 295037238_201001388_201001377 295037238_201001377_201001370 295037238_201001370_201001366 295037238_201001366_201001362 295037238_201001362_201001358 295037238_201001358_201001354 295037238_201001354_201001346 295037238_201001346_201001340 295037238_201001340_201004696 19342570_201004696_201001328 19342570_201001328_201001310 19345807_201001310_201025008 19345807_201025008_201037938 19345807_201037938_201033005 19345807_201033005_201001851 19342595_201001851_201001855 715003097_201001855_201016266" />
	<route id="1000" edges="19347099_8548256579_201033040 19345439_201033040_201033028 19345439_201033028_201033024 19345439_201033024_201033020 19345439_201033020_201033005 19345807_201033005_201037938 19346853_201037938_201034455 19346853_201034455_201032342 19346853_201032342_201051157 19346853_201051157_201051171 19346853_201051171_201037413 19346853_201037413_201009095 19343212_201009095_201009101" />
	<route id="1484" edges="19346943_201052214_201037933 19345807_201037933_201037926 19345807_201037926_201016258 19345807_201016258_201036413 19345807_201036413_201037907 19345807_201037907_201035156" />
	<route id="1483" edges="19346943_201052214_201037933 19345807_201037933_201001851 19346311_201001851_201044926 796793282_201044926_7451723649 796793282_7451723649_201025068 19344737_201025068_201025071" />
	<route id="1482" edges="19346943_201052214_201037933 19345807_201037933_201001851 19345807_201001851_201033005 19345807_201033005_201037938 19345807_201037938_201025008 19345807_201025008_201001310 661055483_201001310_201037940 661055483_201037940_201037944 661055483_201037944_201037948 661055483_201037948_201037952 661055483_201037952_201015229 661055483_201015229_201037960 661055483_201037960_201037970 661055483_201037970_201014995 661055483_201014995_201022348 661055483_201022348_201037977 661055483_201037977_201037990 19346349_201037990_201045256 19346349_201045256_201009688 19346349_201009688_201032855 19346349_201032855_201045259 19346349_201045259_201030085 19346349_201030085_201019250 19344197_201019250_201019253" />
	<route id="1481" edges="19346943_201052214_201037933 19345807_201037933_201001851 19342595_201001851_201001855 715003097_201001855_201016266" />
	<route id="1480" edges="19346943_201052214_201037933 19345807_201037933_201001851 19345807_201001851_201033005 19345807_201033005_201037938 19346853_201037938_201034455 19346853_201034455_201032342 19346853_201032342_201051157 19346853_201051157_201051171 19346853_201051171_201037413 19346853_201037413_201009095 19346853_201009095_201030186 19346853_201030186_201001602 19346853_201001602_201044481 19346853_201044481_201049680 19346853_201049680_201014645 19346853_201014645_201051214 19346976_201051214_201037211 19346976_201037211_201040545 19346976_201040545_201045519 19347357_201045519_201057259" />
	<route id="1479" edges="19346943_201052214_201037933 19345807_201037933_201001851 19345807_201001851_201033005 19345807_201033005_201037938 19345807_201037938_201025008 19345807_201025008_201001310 19342570_201001310_201001328 19342570_201001328_201004696 295037238_201004696_201001340 295037238_201001340_201001346 295037238_201001346_201001354 295037238_201001354_201001358 295037238_201001358_201001362 295037238_201001362_201001366 295037238_201001366_201001370 19344015_201001370_201017581" />
	<route id="1478" edges="19346943_201052214_201037933 19345807_201037933_201001851 19345807_201001851_201033005 19345807_201033005_201037938 19345807_201037938_201025008 19345807_201025008_201001310 661055483_201001310_201037940 661055483_201037940_201037944 661055483_201037944_201037948 661055483_201037948_201037952 661055483_201037952_201015229 661055483_201015229_201037960 661055483_201037960_201037970 661055483_201037970_201014995 661055483_201014995_201022348 661055483_201022348_201037977 661055483_201037977_201037990 19346349_201037990_201045256 19346349_201045256_201009688 19346349_201009688_201032855 19345425_201032855_201032862" />
	<route id="1477" edges="19346943_201052214_201037933 19345807_201037933_201001851 19345807_201001851_201033005 19345807_201033005_201037938 19345807_201037938_201025008 19345807_201025008_201001310 19342570_201001310_201001328 19342570_201001328_201004696 295037238_201004696_201001340 295037238_201001340_201001346 295037238_201001346_201001354 295037238_201001354_201001358 295037238_201001358_201001362 295037238_201001362_201001366 295037238_201001366_201001370 295037238_201001370_201001377 295037238_201001377_201001388 295037238_201001388_201001399 295037238_201001399_201001404 976882051_201001404_201045548 976882051_201045548_201045577 19346375_201045577_201015567" />
	<route id="1476" edges="19346943_201052214_201037933 19345807_201037933_201001851 19345807_201001851_201033005 19345807_201033005_201037938 19345807_201037938_201025008 19345807_201025008_201001310 661055483_201001310_201037940 661055483_201037940_201037944 661055483_201037944_201037948 661055483_201037948_201037952 661055483_201037952_201015229 661055483_201015229_201037960 661055483_201037960_201037970 661055483_201037970_201014995 661055483_201014995_201022348 661055483_201022348_201037977 661055483_201037977_201037990 19346349_201037990_201045256 19346349_201045256_201009688 19346349_201009688_201032855 19346349_201032855_201045259 19346349_201045259_201030085 19346349_201030085_201019250 19346349_201019250_201032214 19345358_201032214_201032227" />
	<route id="1475" edges="19346943_201052214_201037933 19345807_201037933_201001851 19345807_201001851_201033005 19345807_201033005_201037938 19345807_201037938_201025008 19345807_201025008_201001310 661055483_201001310_201037940 661055483_201037940_201037944 661055483_201037944_201037948 661055483_201037948_201037952 661055483_201037952_201015229 661055483_201015229_201037960 661055483_201037960_201037970 661055483_201037970_201014995 661055483_201014995_201022348 19344486_201022348_201022353 19344486_201022353_201022356 19344486_201022356_201022360 19347030_201022360_201008621 19347030_201008621_201040778 19346007_201040778_201040805" />
	<route id="1474" edges="19346943_201052214_201037933 19345807_201037933_201001851 19345807_201001851_201033005 19345807_201033005_201037938 19345807_201037938_201025008 19345807_201025008_201001310 661055483_201001310_201037940 661055483_201037940_201037944 661055483_201037944_201037948 661055483_201037948_201037952 661055483_201037952_201015229 661055483_201015229_201037960 661055483_201037960_201037970 661055483_201037970_201014995 661055483_201014995_201022348 661055483_201022348_201037977 661055483_201037977_201037990 19346349_201037990_201045256 19346349_201045256_201009688 19346349_201009688_201032855 19346349_201032855_201045259 692239767_201045259_201055982" />
	<route id="1011" edges="19345209_201030081_201030085 19346349_201030085_201045259 19346349_201045259_201032855 19346349_201032855_201009688 19346349_201009688_201045256 19346349_201045256_201037990 661055483_201037990_201037977 19347062_201037977_201032315 19347062_201032315_201008632 19343161_201008632_201008621 19347030_201008621_201040778 19347030_201040778_201053200" />
	<route id="1495" edges="19346943_201052214_201037933 19345807_201037933_201001851 19345807_201001851_201033005 19345807_201033005_201037938 19345807_201037938_201025008 19345807_201025008_201001310 661055483_201001310_201037940 661055483_201037940_201037944 661055483_201037944_201037948 661055483_201037948_201037952 661055483_201037952_201015229 661055483_201015229_201037960 661055483_201037960_201037970 661055483_201037970_201014995 661055483_201014995_201022348 661055483_201022348_201037977 661055483_201037977_201037990 19346349_201037990_201045256 19346349_201045256_201009688 19346349_201009688_201032855 19346349_201032855_201045259 19346349_201045259_201030085 19345209_201030085_201030081" />
	<route id="1010" edges="19345209_201030081_201030085 19346349_201030085_201019250 19346349_201019250_201032214 19346349_201032214_201045284 19346349_201045284_201015575 19345355_201015575_201032189" />
	<route id="1494" edges="19346943_201052214_201037933 19345807_201037933_201001851 19345807_201001851_201033005 19345439_201033005_201033020 19345439_201033020_201033024 19345439_201033024_201033028 19345439_201033028_201033040 19347099_201033040_8548256579" />
	<route id="1493" edges="19346943_201052214_201037933 19345807_201037933_201001851 19346311_201001851_201044926" />
	<route id="1492" edges="19346943_201052214_201037933 19345807_201037933_201001851 19342595_201001851_201001855 715003096_201001855_201001860 715003094_201001860_201001870 19347030_201001870_201011602 19347030_201011602_201046299 19346451_201046299_201046307" />
	<route id="1491" edges="19346943_201052214_201037933 19345807_201037933_201001851 19345807_201001851_201033005 19345807_201033005_201037938 19345807_201037938_201025008 19345807_201025008_201001310 661055483_201001310_201037940 661055483_201037940_201037944 661055483_201037944_201037948 661055483_201037948_201037952 661055483_201037952_201015229 661055483_201015229_201037960 661055483_201037960_201037970 19346813_201037970_9817745991" />
	<route id="1490" edges="19346943_201052214_201037933 19345807_201037933_201001851 19345807_201001851_201033005 19345807_201033005_201037938 19345807_201037938_201025008 19345807_201025008_201001310 661055483_201001310_201037940 661055483_201037940_201037944 661055483_201037944_201037948 661055483_201037948_201037952 661055483_201037952_201015229 661055483_201015229_201037960 661055483_201037960_201037970 661055483_201037970_201014995 661055483_201014995_201022348 661055483_201022348_201037977 661055483_201037977_201037990 19346349_201037990_201045256 19346747_201045256_201016922" />
	<route id="1008" edges="19347099_8548256579_201033040 19345439_201033040_201033028 19345439_201033028_201033024 19345439_201033024_201033020 19345439_201033020_201033005 19345807_201033005_201037938 19345807_201037938_201025008 19345807_201025008_201001310 19342570_201001310_201001328 19342570_201001328_201004696 295037238_201004696_201001340 295037238_201001340_201001346 295037238_201001346_201001354 295037238_201001354_201001358 295037238_201001358_201001362 295037238_201001362_201001366 295037238_201001366_201001370 295037238_201001370_201001377 295037238_201001377_201001388 19342598_201001388_201001616 19342576_201001616_201001633" />
	<route id="1007" edges="19347099_8548256579_201033040 19345439_201033040_201033028 19345439_201033028_201033024 19345439_201033024_201033020 19345439_201033020_201033005 19345807_201033005_201037938 19345807_201037938_201025008 19345807_201025008_201001310 19342570_201001310_201001328 19347235_201001328_201041742 579487029_201041742_201015236" />
	<route id="1006" edges="19347099_8548256579_201033040 19345439_201033040_201033028 19347030_201033028_201025029 19347030_201025029_201047008 19347030_201047008_201053192 19347030_201053192_201053195 929513871_201053195_8620388691" />
	<route id="1005" edges="19347099_8548256579_201033040 19345439_201033040_201033028 19347030_201033028_201025029 613398736_201025029_201025037" />
	<route id="1489" edges="19346943_201052214_201037933 19345807_201037933_201037926 19345963_201037926_8777152451" />
	<route id="1004" edges="19347099_8548256579_201033040 19345439_201033040_201033028 19345439_201033028_201033024 19345439_201033024_201033020 19345439_201033020_201033005 19345807_201033005_201037938 19345807_201037938_201025008 19345807_201025008_201001310 19342570_201001310_201001328 19342570_201001328_201004696 295037238_201004696_201001340 295037238_201001340_201001346 295037238_201001346_201001354 295037238_201001354_201001358 295037238_201001358_201001362 295037238_201001362_201001366 295037238_201001366_201001370 295037238_201001370_201001377 295037238_201001377_201001388 19346038_201001388_201041328" />
	<route id="1488" edges="19346943_201052214_201037933 19345807_201037933_201001851 19345807_201001851_201033005 19345807_201033005_201037938 19345807_201037938_201025008 19345807_201025008_201001310 661055483_201001310_201037940 661055483_201037940_201037944 661055483_201037944_201037948 661055483_201037948_201037952 661055483_201037952_201015229 661055483_201015229_201037960 661055483_201037960_201037970 661055483_201037970_201014995 661055483_201014995_201022348 661055483_201022348_201037977 661055483_201037977_201037990 19346349_201037990_201045256 19346349_201045256_201009688 19343332_201009688_201009709" />
	<route id="1003" edges="19347099_8548256579_201033040 19345439_201033040_201033028 19345439_201033028_201033024 19345439_201033024_201033020 19345439_201033020_201033005 19345807_201033005_201037938 19346853_201037938_201034455 19346853_201034455_201032342 19346040_201032342_201041337 576712189_201041337_201026814 576712189_201026814_201044957" />
	<route id="1487" edges="19346943_201052214_201037933 19345807_201037933_201001851 19345807_201001851_201033005 19345807_201033005_201037938 19345807_201037938_201025008 19345807_201025008_201001310 19342570_201001310_201001328 19342570_201001328_201004696 295037238_201004696_201001340 295037238_201001340_201001346 295037238_201001346_201001354 295037238_201001354_201001358 295037238_201001358_201001362 295037238_201001362_201001366 295037238_201001366_201001370 295037238_201001370_201001377 295037238_201001377_201001388 295037238_201001388_201001399 295037238_201001399_201001404 976882051_201001404_201045548 976882051_201045548_201045577 976882051_201045577_201015572 661055482_201015572_201015575 19346349_201015575_201045284 19346676_201045284_201049246" />
	<route id="1002" edges="19347099_8548256579_201033040 19345439_201033040_201033028 19345439_201033028_201033024 19345439_201033024_201033020 19345439_201033020_201033005 19345807_201033005_201037938 19345807_201037938_201025008 19345807_201025008_201001310 19342570_201001310_201001328 19342570_201001328_201004696 295037238_201004696_201001340 295037238_201001340_201001346 295037238_201001346_201001354 295037238_201001354_201001358 295037238_201001358_201001362 295037238_201001362_201001366 19344187_201001366_201019146" />
	<route id="1486" edges="19346943_201052214_201037933 19345807_201037933_201001851 19345807_201001851_201033005 19345807_201033005_201037938 19345807_201037938_201025008 19345807_201025008_201001310 661055483_201001310_201037940 661055483_201037940_201037944 661055483_201037944_201037948 661055483_201037948_201037952 661055483_201037952_201015229 661055483_201015229_201037960 661055483_201037960_201037970 661055483_201037970_201014995 661055483_201014995_201022348 661055483_201022348_201037977 661055483_201037977_201037990 92370014_201037990_201037994 92370014_201037994_457786434" />
	<route id="1001" edges="19347099_8548256579_201033040 19345439_201033040_201033028 19345439_201033028_201033024 19345439_201033024_201033020 19345439_201033020_201033005 19345807_201033005_201001851 19345807_201001851_201037933 19346943_201037933_201052214" />
	<route id="1485" edges="19346943_201052214_201037933 19345807_201037933_201001851 19346311_201001851_201044926 796793282_201044926_7451723649 796793281_7451723649_201034460" />
	<route id="1009" edges="19347099_8548256579_201033040 19345439_201033040_201033028 19345439_201033028_201033024 19345439_201033024_201033020 19345439_201033020_201033005 19345807_201033005_201037938 19345807_201037938_201025008 19345807_201025008_201001310 19342570_201001310_201001328 19342570_201001328_201004696 295037238_201004696_201001340 295037238_201001340_201001346 295037238_201001346_201001354 295037238_201001354_201001358 19345972_201001358_201040442 19345972_201040442_201015220 19345972_201015220_6766419673" />
	<route id="1022" edges="19345209_201030081_201030085 19346349_201030085_201045259 19346349_201045259_201032855 19346349_201032855_201009688 19346349_201009688_201045256 19346349_201045256_201037990 661055483_201037990_201037977 661055483_201037977_201022348 661055483_201022348_201014995 661055483_201014995_201037970 661055483_201037970_201037960 661055483_201037960_201015229 661055483_201015229_201037952 661055483_201037952_201037948 661055483_201037948_201037944 661055483_201037944_201037940 661055483_201037940_201001310 19345807_201001310_201025008 19345807_201025008_201037938 19345807_201037938_201033005 19345807_201033005_201001851 19345807_201001851_201037933 19345807_201037933_201037926 19345807_201037926_201016258 19345807_201016258_201036413 19345807_201036413_201037907 19345807_201037907_201035156" />
	<route id="1021" edges="19345209_201030081_201030085 19346349_201030085_201045259 19346349_201045259_201032855 19346349_201032855_201009688 19346349_201009688_201045256 19346349_201045256_201037990 661055483_201037990_201037977 661055483_201037977_201022348 661055483_201022348_201014995 661055483_201014995_201037970 661055483_201037970_201037960 661055483_201037960_201015229 661055483_201015229_201037952 661055483_201037952_201037948 661055483_201037948_201037944 661055483_201037944_201037940 661055483_201037940_201001310 19345807_201001310_201025008 19345807_201025008_201037938 19345807_201037938_201033005 19345807_201033005_201001851 19346311_201001851_201044926 796793282_201044926_7451723649 796793282_7451723649_201025068 19344737_201025068_201025071" />
	<route id="1020" edges="19345209_201030081_201030085 19346349_201030085_201019250 19344197_201019250_201019253" />
	<route id="1019" edges="19345209_201030081_201030085 19346349_201030085_201045259 19346349_201045259_201032855 19346349_201032855_201009688 19346349_201009688_201045256 19346349_201045256_201037990 661055483_201037990_201037977 661055483_201037977_201022348 661055483_201022348_201014995 661055483_201014995_201037970 661055483_201037970_201037960 661055483_201037960_201015229 661055483_201015229_201037952 661055483_201037952_201037948 661055483_201037948_201037944 661055483_201037944_201037940 661055483_201037940_201001310 19345807_201001310_201025008 19345807_201025008_201037938 19345807_201037938_201033005 19345807_201033005_201001851 19342595_201001851_201001855 715003097_201001855_201016266" />
	<route id="1018" edges="19345209_201030081_201030085 19346349_201030085_201019250 19346349_201019250_201032214 19346349_201032214_201045284 19346349_201045284_201015575 661055482_201015575_201015572 92384070_201015572_201015567 92384070_201015567_201015558 92384070_201015558_201001412 976882052_201001412_201001404 295037238_201001404_201001399 19345977_201001399_201038281 19345977_201038281_201040545 19346976_201040545_201045519 19347357_201045519_201057259" />