<?xml version="1.0" encoding="UTF-8"?>

<!-- generated on 2022-11-30 20:50:23 by Eclipse SUMO netconvert Version 1.15.0
<configuration xmlns:xsi="http://www.w3.org/2001/XMLSchema-instance" xsi:noNamespaceSchemaLocation="http://sumo.dlr.de/xsd/netconvertConfiguration.xsd">

    <input>
        <node-files value="C:\Users\drams\OneDrive\Documents\MOSAIC\eclipse-mosaic-22.1\Maps\Warren\sumo\Warren.nod.xml"/>
        <edge-files value="C:\Users\drams\OneDrive\Documents\MOSAIC\eclipse-mosaic-22.1\Maps\Warren\sumo\Warren.edg.xml"/>
        <connection-files value="C:\Users\drams\OneDrive\Documents\MOSAIC\eclipse-mosaic-22.1\Maps\Warren\sumo\Warren.con.xml"/>
    </input>

    <output>
        <output-file value="C:\Users\drams\OneDrive\Documents\MOSAIC\eclipse-mosaic-22.1\Maps\Warren\sumo\Warren.net.xml"/>
    </output>

</configuration>
-->

<net version="1.9" junctionCornerDetail="5" limitTurnSpeed="5.50" xmlns:xsi="http://www.w3.org/2001/XMLSchema-instance" xsi:noNamespaceSchemaLocation="http://sumo.dlr.de/xsd/net_file.xsd">

    <location netOffset="-309788.52,-4618810.51" convBoundary="0.00,0.00,1791.32,4164.33" origBoundary="309788.52,4618810.51,311579.84,4622974.84" projParameter="!"/>

    <edge id=":201001310_0" function="internal">
        <lane id=":201001310_0_0" index="0" speed="6.46" length="7.06" shape="380.88,3546.88 379.41,3546.93 377.12,3547.03 374.99,3547.30 373.98,3547.85"/>
    </edge>
    <edge id=":201001310_1" function="internal">
        <lane id=":201001310_1_0" index="0" speed="7.64" length="15.20" shape="380.88,3546.88 376.57,3546.65 373.70,3545.05 372.29,3542.09 372.33,3537.77"/>
    </edge>
    <edge id=":201001310_2" function="internal">
        <lane id=":201001310_2_0" index="0" speed="3.65" length="4.67" shape="380.88,3546.88 379.61,3546.19 379.15,3545.43 379.47,3544.59 380.60,3543.69"/>
    </edge>
    <edge id=":201001310_3" function="internal">
        <lane id=":201001310_3_0" index="0" speed="6.05" length="9.07" shape="375.50,3538.25 375.47,3540.83 376.31,3542.60 378.02,3543.55 380.60,3543.69"/>
    </edge>
    <edge id=":201001310_4" function="internal">
        <lane id=":201001310_4_0" index="0" speed="18.06" length="9.71" shape="375.50,3538.25 373.98,3547.85"/>
    </edge>
    <edge id=":201001310_5" function="internal">
        <lane id=":201001310_5_0" index="0" speed="3.65" length="1.44" shape="375.50,3538.25 374.52,3539.32"/>
    </edge>
    <edge id=":201001310_9" function="internal">
        <lane id=":201001310_9_0" index="0" speed="3.65" length="3.23" shape="374.52,3539.32 373.67,3539.59 372.94,3539.08 372.33,3537.77"/>
    </edge>
    <edge id=":201001310_6" function="internal">
        <lane id=":201001310_6_0" index="0" speed="18.06" length="9.63" shape="370.83,3547.28 372.33,3537.77"/>
    </edge>
    <edge id=":201001310_7" function="internal">
        <lane id=":201001310_7_0" index="0" speed="7.86" length="1.60" shape="370.83,3547.28 371.63,3546.02 371.73,3545.97"/>
    </edge>
    <edge id=":201001310_8" function="internal">
        <lane id=":201001310_8_0" index="0" speed="3.65" length="1.44" shape="370.83,3547.28 371.83,3546.24"/>
    </edge>
    <edge id=":201001310_10" function="internal">
        <lane id=":201001310_10_0" index="0" speed="7.86" length="9.25" shape="371.73,3545.97 373.52,3545.00 376.51,3544.22 380.60,3543.69"/>
    </edge>
    <edge id=":201001310_11" function="internal">
        <lane id=":201001310_11_0" index="0" speed="3.65" length="3.23" shape="371.83,3546.24 372.69,3545.99 373.41,3546.53 373.98,3547.85"/>
    </edge>
    <edge id=":201001328_0" function="internal">
        <lane id=":201001328_0_0" index="0" speed="18.06" length="14.31" shape="528.15,3528.74 513.97,3530.66"/>
    </edge>
    <edge id=":201001328_1" function="internal">
        <lane id=":201001328_1_0" index="0" speed="7.87" length="4.01" shape="528.15,3528.74 524.14,3528.66"/>
    </edge>
    <edge id=":201001328_2" function="internal">
        <lane id=":201001328_2_0" index="0" speed="3.65" length="1.44" shape="528.15,3528.74 526.86,3528.10"/>
    </edge>
    <edge id=":201001328_9" function="internal">
        <lane id=":201001328_9_0" index="0" speed="7.87" length="10.47" shape="524.14,3528.66 521.21,3527.30 519.36,3524.65 518.60,3520.71"/>
    </edge>
    <edge id=":201001328_10" function="internal">
        <lane id=":201001328_10_0" index="0" speed="3.65" length="3.23" shape="526.86,3528.10 526.36,3527.35 526.66,3526.51 527.76,3525.57"/>
    </edge>
    <edge id=":201001328_3" function="internal">
        <lane id=":201001328_3_0" index="0" speed="6.35" length="9.04" shape="521.80,3520.55 522.27,3523.01 523.43,3524.67 525.25,3525.52 527.76,3525.57"/>
    </edge>
    <edge id=":201001328_4" function="internal">
        <lane id=":201001328_4_0" index="0" speed="8.32" length="14.28" shape="521.80,3520.55 521.47,3524.52 520.06,3527.52 517.55,3529.57 513.97,3530.66"/>
    </edge>
    <edge id=":201001328_5" function="internal">
        <lane id=":201001328_5_0" index="0" speed="3.65" length="4.67" shape="521.80,3520.55 521.06,3521.79 520.28,3522.23 519.46,3521.87 518.60,3520.71"/>
    </edge>
    <edge id=":201001328_6" function="internal">
        <lane id=":201001328_6_0" index="0" speed="6.89" length="9.48" shape="513.50,3527.49 515.84,3526.77 517.47,3525.40 518.39,3523.38 518.60,3520.71"/>
    </edge>
    <edge id=":201001328_7" function="internal">
        <lane id=":201001328_7_0" index="0" speed="18.06" length="14.39" shape="513.50,3527.49 527.76,3525.57"/>
    </edge>
    <edge id=":201001328_8" function="internal">
        <lane id=":201001328_8_0" index="0" speed="3.65" length="1.44" shape="513.50,3527.49 514.80,3528.11"/>
    </edge>
    <edge id=":201001328_11" function="internal">
        <lane id=":201001328_11_0" index="0" speed="3.65" length="3.23" shape="514.80,3528.11 515.32,3528.84 515.04,3529.69 513.97,3530.66"/>
    </edge>
    <edge id=":201001340_0" function="internal">
        <lane id=":201001340_0_0" index="0" speed="6.45" length="9.03" shape="550.48,3531.16 549.81,3528.77 548.54,3527.18 546.66,3526.41 544.18,3526.44"/>
    </edge>
    <edge id=":201001340_1" function="internal">
        <lane id=":201001340_1_0" index="0" speed="8.33" length="15.47" shape="550.48,3531.16 550.38,3526.26 551.10,3522.54 551.95,3519.31 552.24,3515.89"/>
    </edge>
    <edge id=":201001340_2" function="internal">
        <lane id=":201001340_2_0" index="0" speed="8.13" length="14.55" shape="553.65,3530.75 553.71,3526.79 555.03,3523.78 557.61,3521.72 561.46,3520.61"/>
    </edge>
    <edge id=":201001340_3" function="internal">
        <lane id=":201001340_3_0" index="0" speed="18.06" length="17.92" shape="561.90,3523.78 544.18,3526.44"/>
    </edge>
    <edge id=":201001340_4" function="internal">
        <lane id=":201001340_4_0" index="0" speed="7.87" length="4.02" shape="561.90,3523.78 557.88,3523.77"/>
    </edge>
    <edge id=":201001340_5" function="internal">
        <lane id=":201001340_5_0" index="0" speed="3.65" length="1.44" shape="561.90,3523.78 560.60,3523.16"/>
    </edge>
    <edge id=":201001340_12" function="internal">
        <lane id=":201001340_12_0" index="0" speed="7.87" length="10.48" shape="557.88,3523.77 554.93,3522.45 553.05,3519.82 552.24,3515.89"/>
    </edge>
    <edge id=":201001340_13" function="internal">
        <lane id=":201001340_13_0" index="0" speed="3.65" length="3.23" shape="560.60,3523.16 560.10,3522.42 560.38,3521.57 561.46,3520.61"/>
    </edge>
    <edge id=":201001340_6" function="internal">
        <lane id=":201001340_6_0" index="0" speed="6.34" length="9.04" shape="555.43,3515.69 555.94,3518.15 557.11,3519.78 558.95,3520.61 561.46,3520.61"/>
    </edge>
    <edge id=":201001340_7" function="internal">
        <lane id=":201001340_7_0" index="0" speed="9.10" length="17.31" shape="555.43,3515.69 554.93,3519.70 552.89,3522.83 549.31,3525.08 544.18,3526.44"/>
    </edge>
    <edge id=":201001340_8" function="internal">
        <lane id=":201001340_8_0" index="0" speed="3.65" length="4.67" shape="555.43,3515.69 554.71,3516.94 553.93,3517.39 553.11,3517.04 552.24,3515.89"/>
    </edge>
    <edge id=":201001340_9" function="internal">
        <lane id=":201001340_9_0" index="0" speed="7.81" length="12.52" shape="543.69,3523.27 547.56,3522.29 550.28,3520.73 551.84,3518.60 552.24,3515.89"/>
    </edge>
    <edge id=":201001340_10" function="internal">
        <lane id=":201001340_10_0" index="0" speed="18.06" length="17.97" shape="543.69,3523.27 561.46,3520.61"/>
    </edge>
    <edge id=":201001340_11" function="internal">
        <lane id=":201001340_11_0" index="0" speed="3.65" length="1.44" shape="543.69,3523.27 544.99,3523.88"/>
    </edge>
    <edge id=":201001340_14" function="internal">
        <lane id=":201001340_14_0" index="0" speed="3.65" length="3.23" shape="544.99,3523.88 545.51,3524.61 545.24,3525.46 544.18,3526.44"/>
    </edge>
    <edge id=":201001346_0" function="internal">
        <lane id=":201001346_0_0" index="0" speed="6.57" length="8.99" shape="620.51,3515.27 618.22,3516.01 616.69,3517.33 615.92,3519.24 615.91,3521.74"/>
    </edge>
    <edge id=":201001346_1" function="internal">
        <lane id=":201001346_1_0" index="0" speed="18.06" length="14.10" shape="620.51,3515.27 606.59,3517.49"/>
    </edge>
    <edge id=":201001346_2" function="internal">
        <lane id=":201001346_2_0" index="0" speed="3.65" length="1.44" shape="620.51,3515.27 619.20,3514.68"/>
    </edge>
    <edge id=":201001346_6" function="internal">
        <lane id=":201001346_6_0" index="0" speed="3.65" length="3.23" shape="619.20,3514.68 618.67,3513.96 618.94,3513.10 619.99,3512.12"/>
    </edge>
    <edge id=":201001346_3" function="internal">
        <lane id=":201001346_3_0" index="0" speed="18.06" length="14.02" shape="606.14,3514.32 619.99,3512.12"/>
    </edge>
    <edge id=":201001346_4" function="internal">
        <lane id=":201001346_4_0" index="0" speed="7.25" length="2.47" shape="606.14,3514.32 608.60,3514.52"/>
    </edge>
    <edge id=":201001346_5" function="internal">
        <lane id=":201001346_5_0" index="0" speed="3.65" length="1.44" shape="606.14,3514.32 607.44,3514.95"/>
    </edge>
    <edge id=":201001346_7" function="internal">
        <lane id=":201001346_7_0" index="0" speed="7.25" length="9.06" shape="608.60,3514.52 610.52,3515.89 611.90,3518.44 612.74,3522.16"/>
    </edge>
    <edge id=":201001346_8" function="internal">
        <lane id=":201001346_8_0" index="0" speed="3.65" length="3.23" shape="607.44,3514.95 607.95,3515.68 607.66,3516.53 606.59,3517.49"/>
    </edge>
    <edge id=":201001354_0" function="internal">
        <lane id=":201001354_0_0" index="0" speed="6.37" length="9.04" shape="672.52,3513.40 671.97,3510.97 670.77,3509.34 668.93,3508.52 666.43,3508.52"/>
    </edge>
    <edge id=":201001354_1" function="internal">
        <lane id=":201001354_1_0" index="0" speed="7.53" length="12.00" shape="675.71,3513.15 675.73,3509.12 676.51,3506.15 678.04,3504.24 680.34,3503.38"/>
    </edge>
    <edge id=":201001354_2" function="internal">
        <lane id=":201001354_2_0" index="0" speed="18.06" length="14.44" shape="680.73,3506.55 666.43,3508.52"/>
    </edge>
    <edge id=":201001354_3" function="internal">
        <lane id=":201001354_3_0" index="0" speed="3.65" length="1.44" shape="680.73,3506.55 679.44,3505.91"/>
    </edge>
    <edge id=":201001354_6" function="internal">
        <lane id=":201001354_6_0" index="0" speed="3.65" length="3.23" shape="679.44,3505.91 678.95,3505.16 679.24,3504.32 680.34,3503.38"/>
    </edge>
    <edge id=":201001354_4" function="internal">
        <lane id=":201001354_4_0" index="0" speed="18.06" length="14.50" shape="665.98,3505.35 680.34,3503.38"/>
    </edge>
    <edge id=":201001354_5" function="internal">
        <lane id=":201001354_5_0" index="0" speed="3.65" length="1.44" shape="665.98,3505.35 667.28,3505.98"/>
    </edge>
    <edge id=":201001354_7" function="internal">
        <lane id=":201001354_7_0" index="0" speed="3.65" length="3.23" shape="667.28,3505.98 667.78,3506.71 667.50,3507.56 666.43,3508.52"/>
    </edge>
    <edge id=":201001358_0" function="internal">
        <lane id=":201001358_0_0" index="0" speed="18.06" length="14.69" shape="696.20,3504.40 681.65,3506.44"/>
    </edge>
    <edge id=":201001358_1" function="internal">
        <lane id=":201001358_1_0" index="0" speed="7.65" length="4.41" shape="696.20,3504.40 691.90,3504.44 691.80,3504.39"/>
    </edge>
    <edge id=":201001358_2" function="internal">
        <lane id=":201001358_2_0" index="0" speed="3.65" length="1.44" shape="696.20,3504.40 694.89,3503.79"/>
    </edge>
    <edge id=":201001358_9" function="internal">
        <lane id=":201001358_9_0" index="0" speed="7.65" length="10.74" shape="691.80,3504.39 688.94,3503.03 687.33,3500.18 687.05,3495.89"/>
    </edge>
    <edge id=":201001358_10" function="internal">
        <lane id=":201001358_10_0" index="0" speed="3.65" length="3.23" shape="694.89,3503.79 694.37,3503.06 694.65,3502.21 695.72,3501.24"/>
    </edge>
    <edge id=":201001358_3" function="internal">
        <lane id=":201001358_3_0" index="0" speed="6.07" length="9.07" shape="690.24,3496.14 690.41,3498.71 691.37,3500.42 693.14,3501.26 695.72,3501.24"/>
    </edge>
    <edge id=":201001358_4" function="internal">
        <lane id=":201001358_4_0" index="0" speed="8.80" length="14.68" shape="690.24,3496.14 689.43,3500.28 687.72,3503.37 685.13,3505.43 681.65,3506.44"/>
    </edge>
    <edge id=":201001358_5" function="internal">
        <lane id=":201001358_5_0" index="0" speed="3.65" length="4.67" shape="690.24,3496.14 689.35,3497.28 688.52,3497.61 687.76,3497.15 687.05,3495.89"/>
    </edge>
    <edge id=":201001358_6" function="internal">
        <lane id=":201001358_6_0" index="0" speed="7.44" length="10.25" shape="681.26,3503.26 683.59,3502.55 685.34,3501.09 686.49,3498.87 687.05,3495.89"/>
    </edge>
    <edge id=":201001358_7" function="internal">
        <lane id=":201001358_7_0" index="0" speed="18.06" length="14.60" shape="681.26,3503.26 695.72,3501.24"/>
    </edge>
    <edge id=":201001358_8" function="internal">
        <lane id=":201001358_8_0" index="0" speed="3.65" length="1.44" shape="681.26,3503.26 682.55,3503.91"/>
    </edge>
    <edge id=":201001358_11" function="internal">
        <lane id=":201001358_11_0" index="0" speed="3.65" length="3.23" shape="682.55,3503.91 683.04,3504.65 682.74,3505.49 681.65,3506.44"/>
    </edge>
    <edge id=":201001362_0" function="internal">
        <lane id=":201001362_0_0" index="0" speed="6.35" length="9.04" shape="766.74,3499.45 766.19,3497.01 764.99,3495.39 763.14,3494.59 760.63,3494.61"/>
    </edge>
    <edge id=":201001362_1" function="internal">
        <lane id=":201001362_1_0" index="0" speed="8.23" length="14.31" shape="766.74,3499.45 766.96,3495.48 768.31,3492.46 770.81,3490.41 774.44,3489.32"/>
    </edge>
    <edge id=":201001362_2" function="internal">
        <lane id=":201001362_2_0" index="0" speed="3.65" length="4.67" shape="766.74,3499.45 767.44,3498.19 768.21,3497.73 769.04,3498.07 769.93,3499.20"/>
    </edge>
    <edge id=":201001362_3" function="internal">
        <lane id=":201001362_3_0" index="0" speed="6.78" length="9.40" shape="774.90,3492.48 772.55,3493.20 770.94,3494.56 770.06,3496.56 769.93,3499.20"/>
    </edge>
    <edge id=":201001362_4" function="internal">
        <lane id=":201001362_4_0" index="0" speed="18.06" length="14.42" shape="774.90,3492.48 760.63,3494.61"/>
    </edge>
    <edge id=":201001362_5" function="internal">
        <lane id=":201001362_5_0" index="0" speed="3.65" length="1.44" shape="774.90,3492.48 773.60,3491.86"/>
    </edge>
    <edge id=":201001362_9" function="internal">
        <lane id=":201001362_9_0" index="0" speed="3.65" length="3.23" shape="773.60,3491.86 773.09,3491.13 773.37,3490.28 774.44,3489.32"/>
    </edge>
    <edge id=":201001362_6" function="internal">
        <lane id=":201001362_6_0" index="0" speed="18.06" length="14.44" shape="760.15,3491.45 774.44,3489.32"/>
    </edge>
    <edge id=":201001362_7" function="internal">
        <lane id=":201001362_7_0" index="0" speed="7.88" length="4.15" shape="760.15,3491.45 764.16,3491.41 764.29,3491.47"/>
    </edge>
    <edge id=":201001362_8" function="internal">
        <lane id=":201001362_8_0" index="0" speed="3.65" length="1.44" shape="760.15,3491.45 761.46,3492.06"/>
    </edge>
    <edge id=":201001362_10" function="internal">
        <lane id=":201001362_10_0" index="0" speed="7.88" length="10.33" shape="764.29,3491.47 767.13,3492.70 769.05,3495.29 769.93,3499.20"/>
    </edge>
    <edge id=":201001362_11" function="internal">
        <lane id=":201001362_11_0" index="0" speed="3.65" length="3.23" shape="761.46,3492.06 761.98,3492.79 761.70,3493.64 760.63,3494.61"/>
    </edge>
    <edge id=":201001366_0" function="internal">
        <lane id=":201001366_0_0" index="0" speed="18.06" length="14.72" shape="827.39,3484.94 812.83,3487.07"/>
    </edge>
    <edge id=":201001366_1" function="internal">
        <lane id=":201001366_1_0" index="0" speed="7.57" length="4.44" shape="827.39,3484.94 822.95,3484.97"/>
    </edge>
    <edge id=":201001366_2" function="internal">
        <lane id=":201001366_2_0" index="0" speed="3.65" length="1.44" shape="827.39,3484.94 826.09,3484.33"/>
    </edge>
    <edge id=":201001366_9" function="internal">
        <lane id=":201001366_9_0" index="0" speed="7.57" length="11.03" shape="822.95,3484.97 820.00,3483.51 818.54,3480.56 818.57,3476.12"/>
    </edge>
    <edge id=":201001366_10" function="internal">
        <lane id=":201001366_10_0" index="0" speed="3.65" length="3.23" shape="826.09,3484.33 825.57,3483.60 825.85,3482.75 826.92,3481.78"/>
    </edge>
    <edge id=":201001366_3" function="internal">
        <lane id=":201001366_3_0" index="0" speed="5.96" length="9.09" shape="821.74,3476.59 821.72,3479.20 822.58,3480.94 824.31,3481.79 826.92,3481.78"/>
    </edge>
    <edge id=":201001366_4" function="internal">
        <lane id=":201001366_4_0" index="0" speed="9.20" length="14.85" shape="821.74,3476.59 820.65,3480.78 818.80,3483.92 816.20,3486.02 812.83,3487.07"/>
    </edge>
    <edge id=":201001366_5" function="internal">
        <lane id=":201001366_5_0" index="0" speed="3.65" length="4.67" shape="821.74,3476.59 820.77,3477.66 819.92,3477.94 819.19,3477.42 818.57,3476.12"/>
    </edge>
    <edge id=":201001366_6" function="internal">
        <lane id=":201001366_6_0" index="0" speed="7.89" length="10.72" shape="812.37,3483.91 814.69,3483.14 816.49,3481.59 817.79,3479.25 818.57,3476.12"/>
    </edge>
    <edge id=":201001366_7" function="internal">
        <lane id=":201001366_7_0" index="0" speed="18.06" length="14.70" shape="812.37,3483.91 826.92,3481.78"/>
    </edge>
    <edge id=":201001366_8" function="internal">
        <lane id=":201001366_8_0" index="0" speed="3.65" length="1.44" shape="812.37,3483.91 813.68,3484.53"/>
    </edge>
    <edge id=":201001366_11" function="internal">
        <lane id=":201001366_11_0" index="0" speed="3.65" length="3.23" shape="813.68,3484.53 814.18,3485.26 813.90,3486.11 812.83,3487.07"/>
    </edge>
    <edge id=":201001370_0" function="internal">
        <lane id=":201001370_0_0" index="0" speed="18.06" length="15.10" shape="880.99,3476.36 866.15,3479.15"/>
    </edge>
    <edge id=":201001370_1" function="internal">
        <lane id=":201001370_1_0" index="0" speed="7.51" length="4.76" shape="880.99,3476.36 876.41,3476.70 876.25,3476.64"/>
    </edge>
    <edge id=":201001370_2" function="internal">
        <lane id=":201001370_2_0" index="0" speed="3.65" length="1.44" shape="880.99,3476.36 879.65,3475.84"/>
    </edge>
    <edge id=":201001370_9" function="internal">
        <lane id=":201001370_9_0" index="0" speed="7.51" length="11.05" shape="876.25,3476.64 873.37,3475.40 871.87,3472.45 871.91,3467.85"/>
    </edge>
    <edge id=":201001370_10" function="internal">
        <lane id=":201001370_10_0" index="0" speed="3.65" length="3.23" shape="879.65,3475.84 879.09,3475.14 879.31,3474.27 880.31,3473.24"/>
    </edge>
    <edge id=":201001370_3" function="internal">
        <lane id=":201001370_3_0" index="0" speed="5.87" length="9.12" shape="875.07,3468.33 875.05,3470.98 875.91,3472.68 877.67,3473.43 880.31,3473.24"/>
    </edge>
    <edge id=":201001370_4" function="internal">
        <lane id=":201001370_4_0" index="0" speed="9.30" length="15.12" shape="875.07,3468.33 873.97,3472.65 872.11,3475.89 869.51,3478.06 866.15,3479.15"/>
    </edge>
    <edge id=":201001370_5" function="internal">
        <lane id=":201001370_5_0" index="0" speed="3.65" length="4.67" shape="875.07,3468.33 874.10,3469.40 873.25,3469.67 872.52,3469.16 871.91,3467.85"/>
    </edge>
    <edge id=":201001370_6" function="internal">
        <lane id=":201001370_6_0" index="0" speed="8.02" length="11.02" shape="865.68,3475.99 867.99,3475.19 869.80,3473.57 871.10,3471.13 871.91,3467.85"/>
    </edge>
    <edge id=":201001370_7" function="internal">
        <lane id=":201001370_7_0" index="0" speed="18.06" length="14.89" shape="865.68,3475.99 880.31,3473.24"/>
    </edge>
    <edge id=":201001370_8" function="internal">
        <lane id=":201001370_8_0" index="0" speed="3.65" length="1.44" shape="865.68,3475.99 866.98,3476.60"/>
    </edge>
    <edge id=":201001370_11" function="internal">
        <lane id=":201001370_11_0" index="0" speed="3.65" length="3.23" shape="866.98,3476.60 867.50,3477.33 867.22,3478.18 866.15,3479.15"/>
    </edge>
    <edge id=":201001377_0" function="internal">
        <lane id=":201001377_0_0" index="0" speed="8.65" length="11.54" shape="947.10,3464.65 944.78,3465.44 942.84,3467.09 941.26,3469.60 940.05,3472.96"/>
    </edge>
    <edge id=":201001377_1" function="internal">
        <lane id=":201001377_1_0" index="0" speed="18.06" length="15.00" shape="947.10,3464.65 932.26,3466.87"/>
    </edge>
    <edge id=":201001377_2" function="internal">
        <lane id=":201001377_2_0" index="0" speed="3.65" length="1.44" shape="947.10,3464.65 945.80,3464.03"/>
    </edge>
    <edge id=":201001377_9" function="internal">
        <lane id=":201001377_9_0" index="0" speed="3.65" length="3.23" shape="945.80,3464.03 945.29,3463.30 945.57,3462.45 946.64,3461.49"/>
    </edge>
    <edge id=":201001377_3" function="internal">
        <lane id=":201001377_3_0" index="0" speed="18.06" length="15.03" shape="931.78,3463.71 946.64,3461.49"/>
    </edge>
    <edge id=":201001377_4" function="internal">
        <lane id=":201001377_4_0" index="0" speed="7.47" length="4.73" shape="931.78,3463.71 936.51,3463.64"/>
    </edge>
    <edge id=":201001377_5" function="internal">
        <lane id=":201001377_5_0" index="0" speed="3.65" length="1.44" shape="931.78,3463.71 933.08,3464.32"/>
    </edge>
    <edge id=":201001377_10" function="internal">
        <lane id=":201001377_10_0" index="0" speed="7.47" length="11.38" shape="936.51,3463.64 939.46,3465.16 940.64,3468.27 940.05,3472.96"/>
    </edge>
    <edge id=":201001377_11" function="internal">
        <lane id=":201001377_11_0" index="0" speed="3.65" length="3.23" shape="933.08,3464.32 933.60,3465.05 933.33,3465.90 932.26,3466.87"/>
    </edge>
    <edge id=":201001377_6" function="internal">
        <lane id=":201001377_6_0" index="0" speed="5.79" length="9.15" shape="936.96,3472.13 937.30,3469.46 936.63,3467.70 934.95,3466.83 932.26,3466.87"/>
    </edge>
    <edge id=":201001377_7" function="internal">
        <lane id=":201001377_7_0" index="0" speed="9.87" length="15.27" shape="936.96,3472.13 938.54,3467.85 940.68,3464.66 943.38,3462.53 946.64,3461.49"/>
    </edge>
    <edge id=":201001377_8" function="internal">
        <lane id=":201001377_8_0" index="0" speed="3.65" length="4.67" shape="936.96,3472.13 938.04,3471.18 938.92,3471.00 939.59,3471.60 940.05,3472.96"/>
    </edge>
    <edge id=":201001388_0" function="internal">
        <lane id=":201001388_0_0" index="0" speed="6.68" length="9.30" shape="1046.28,3455.62 1045.43,3453.16 1044.04,3451.54 1042.11,3450.74 1039.64,3450.78"/>
    </edge>
    <edge id=":201001388_1" function="internal">
        <lane id=":201001388_1_0" index="0" speed="8.33" length="14.74" shape="1046.28,3455.62 1043.86,3441.08"/>
    </edge>
    <edge id=":201001388_2" function="internal">
        <lane id=":201001388_2_0" index="0" speed="7.89" length="14.44" shape="1046.28,3455.62 1046.05,3451.64 1047.18,3448.61 1049.66,3446.55 1053.49,3445.44"/>
    </edge>
    <edge id=":201001388_3" function="internal">
        <lane id=":201001388_3_0" index="0" speed="3.65" length="4.67" shape="1046.28,3455.62 1046.83,3454.29 1047.53,3453.74 1048.39,3453.97 1049.42,3454.98"/>
    </edge>
    <edge id=":201001388_4" function="internal">
        <lane id=":201001388_4_0" index="0" speed="6.37" length="9.04" shape="1053.93,3448.61 1051.53,3449.30 1049.98,3450.60 1049.27,3452.49 1049.42,3454.98"/>
    </edge>
    <edge id=":201001388_5" function="internal">
        <lane id=":201001388_5_0" index="0" speed="18.06" length="14.46" shape="1053.93,3448.61 1039.64,3450.78"/>
    </edge>
    <edge id=":201001388_6" function="internal">
        <lane id=":201001388_6_0" index="0" speed="8.03" length="3.98" shape="1053.93,3448.61 1049.95,3448.60"/>
    </edge>
    <edge id=":201001388_7" function="internal">
        <lane id=":201001388_7_0" index="0" speed="3.65" length="1.44" shape="1053.93,3448.61 1052.63,3447.98"/>
    </edge>
    <edge id=":201001388_16" function="internal">
        <lane id=":201001388_16_0" index="0" speed="8.03" length="10.39" shape="1049.95,3448.60 1046.94,3447.35 1044.91,3444.84 1043.86,3441.08"/>
    </edge>
    <edge id=":201001388_17" function="internal">
        <lane id=":201001388_17_0" index="0" speed="3.65" length="3.23" shape="1052.63,3447.98 1052.13,3447.25 1052.41,3446.40 1053.49,3445.44"/>
    </edge>
    <edge id=":201001388_8" function="internal">
        <lane id=":201001388_8_0" index="0" speed="6.54" length="9.18" shape="1047.03,3440.67 1047.70,3443.05 1049.01,3444.65 1050.94,3445.44 1053.49,3445.44"/>
    </edge>
    <edge id=":201001388_9" function="internal">
        <lane id=":201001388_9_0" index="0" speed="8.33" length="14.51" shape="1047.03,3440.67 1049.42,3454.98"/>
    </edge>
    <edge id=":201001388_10" function="internal">
        <lane id=":201001388_10_0" index="0" speed="8.10" length="14.17" shape="1047.03,3440.67 1046.99,3444.56 1045.74,3447.54 1043.29,3449.62 1039.64,3450.78"/>
    </edge>
    <edge id=":201001388_11" function="internal">
        <lane id=":201001388_11_0" index="0" speed="3.65" length="4.67" shape="1047.03,3440.67 1046.39,3441.96 1045.65,3442.46 1044.80,3442.17 1043.86,3441.08"/>
    </edge>
    <edge id=":201001388_12" function="internal">
        <lane id=":201001388_12_0" index="0" speed="6.62" length="9.14" shape="1039.12,3447.62 1041.46,3446.87 1043.04,3445.53 1043.83,3443.60 1043.86,3441.08"/>
    </edge>
    <edge id=":201001388_13" function="internal">
        <lane id=":201001388_13_0" index="0" speed="18.06" length="14.54" shape="1039.12,3447.62 1053.49,3445.44"/>
    </edge>
    <edge id=":201001388_14" function="internal">
        <lane id=":201001388_14_0" index="0" speed="8.14" length="4.10" shape="1039.12,3447.62 1042.95,3447.55 1043.19,3447.65"/>
    </edge>
    <edge id=":201001388_15" function="internal">
        <lane id=":201001388_15_0" index="0" speed="3.65" length="1.44" shape="1039.12,3447.62 1040.43,3448.21"/>
    </edge>
    <edge id=":201001388_18" function="internal">
        <lane id=":201001388_18_0" index="0" speed="8.14" length="10.23" shape="1043.19,3447.65 1045.95,3448.76 1048.10,3451.23 1049.42,3454.98"/>
    </edge>
    <edge id=":201001388_19" function="internal">
        <lane id=":201001388_19_0" index="0" speed="3.65" length="3.23" shape="1040.43,3448.21 1040.96,3448.94 1040.69,3449.79 1039.64,3450.78"/>
    </edge>
    <edge id=":201001399_0" function="internal">
        <lane id=":201001399_0_0" index="0" speed="6.73" length="9.33" shape="1198.12,3434.04 1197.26,3431.57 1195.86,3429.93 1193.94,3429.11 1191.48,3429.11"/>
    </edge>
    <edge id=":201001399_1" function="internal">
        <lane id=":201001399_1_0" index="0" speed="7.90" length="14.43" shape="1198.12,3434.04 1197.88,3430.06 1198.99,3427.03 1201.46,3424.95 1205.28,3423.83"/>
    </edge>
    <edge id=":201001399_2" function="internal">
        <lane id=":201001399_2_0" index="0" speed="3.65" length="4.67" shape="1198.12,3434.04 1198.66,3432.70 1199.36,3432.15 1200.23,3432.38 1201.25,3433.39"/>
    </edge>
    <edge id=":201001399_3" function="internal">
        <lane id=":201001399_3_0" index="0" speed="6.38" length="9.04" shape="1205.74,3427.00 1203.35,3427.70 1201.80,3429.00 1201.10,3430.90 1201.25,3433.39"/>
    </edge>
    <edge id=":201001399_4" function="internal">
        <lane id=":201001399_4_0" index="0" speed="18.06" length="14.42" shape="1205.74,3427.00 1191.48,3429.11"/>
    </edge>
    <edge id=":201001399_5" function="internal">
        <lane id=":201001399_5_0" index="0" speed="3.65" length="1.44" shape="1205.74,3427.00 1204.44,3426.38"/>
    </edge>
    <edge id=":201001399_9" function="internal">
        <lane id=":201001399_9_0" index="0" speed="3.65" length="3.23" shape="1204.44,3426.38 1203.93,3425.64 1204.21,3424.79 1205.28,3423.83"/>
    </edge>
    <edge id=":201001399_6" function="internal">
        <lane id=":201001399_6_0" index="0" speed="18.06" length="14.45" shape="1190.99,3425.95 1205.28,3423.83"/>
    </edge>
    <edge id=":201001399_7" function="internal">
        <lane id=":201001399_7_0" index="0" speed="8.18" length="4.01" shape="1190.99,3425.95 1194.81,3425.93 1194.99,3426.00"/>
    </edge>
    <edge id=":201001399_8" function="internal">
        <lane id=":201001399_8_0" index="0" speed="3.65" length="1.44" shape="1190.99,3425.95 1192.30,3426.56"/>
    </edge>
    <edge id=":201001399_10" function="internal">