<edges>
	<edge id="92370014_201037994_457786434" from="201037994" to="457786434" numLanes="1" shape="310238.19,4621690.46,0.00 310238.38,4621682.99,0.00 310240.47,4621632.54,0.00 310242.12,4621600.02,0.00 310242.58,4621581.62,0.00 310244.46,4621489.84,0.00 310244.66,4621479.51,0.00 310245.37,4621412.05,0.00 310247.07,4621336.11,0.00 310247.21,4621331.97,0.00 310249.63,4621258.49,0.00 310249.91,4621250.70,0.00 310250.65,4621230.75,0.00 310251.06,4621219.76,0.00 310251.47,4621208.55,0.00 310251.80,4621173.98,0.00 310251.93,4621156.98,0.00 310253.91,4621087.04,0.00 310254.17,4621073.85,0.00 310256.12,4620978.98,0.00 310256.35,4620962.53,0.00 310257.62,4620891.05,0.00 310259.16,4620830.01,0.00 310259.50,4620817.45,0.00 310261.34,4620767.51,0.00 310263.47,4620681.45,0.00 310264.45,4620642.98,0.00 310266.30,4620546.49,0.00 310267.24,4620510.79,0.00 310267.54,4620499.01,0.00 310268.24,4620468.99,0.00 310269.54,4620418.11,0.00 310269.71,4620411.40,0.00 310270.34,4620384.71,0.00 310270.56,4620374.04,0.00 310272.13,4620313.89,0.00 310272.63,4620291.87,0.00" speed="18.06" />
	<edge id="576712189_201026814_201044957" from="201026814" to="201044957" numLanes="1" shape="310392.75,4622538.03,0.00 310442.20,4622535.50,0.00 310489.07,4622532.48,0.00 310492.31,4622557.51,0.00 310494.06,4622576.46,0.00 310495.47,4622582.54,0.00 310503.31,4622589.55,0.00 310526.52,4622601.49,0.00 310546.21,4622605.52,0.00" speed="8.33" />
	<edge id="19346349_201045256_201037990" from="201045256" to="201037990" numLanes="1" shape="310355.13,4621808.36,0.00 310336.93,4621807.74,0.00 310312.29,4621806.84,0.00 310302.85,4621806.75,0.00 310290.03,4621807.12,0.00 310275.58,4621806.61,0.00 310235.69,4621804.87,0.00" speed="13.89" />
	<edge id="19346349_201030085_201045259" from="201030085" to="201045259" numLanes="1" shape="310584.97,4621819.14,0.00 310526.91,4621816.38,0.00" speed="13.89" />
	<edge id="92385002_201015710_201015507" from="201015710" to="201015507" numLanes="2" shape="311471.14,4619553.55,0.00 311483.15,4619458.83,0.00 311491.61,4619392.02,0.00 311500.61,4619337.21,0.00 311507.90,4619265.31,0.00 311519.55,4619175.50,0.00 311526.61,4619127.21,0.00 311534.79,4619058.22,0.00 311539.08,4619021.99,0.00 311540.21,4619012.90,0.00 311548.27,4618947.65,0.00 311550.50,4618929.56,0.00 311551.44,4618922.87,0.00 311553.90,4618905.13,0.00 311556.99,4618882.97,0.00 311565.91,4618810.51,0.00" speed="18.06" />
	<edge id="661055483_201037977_201037990" from="201037977" to="201037990" numLanes="1" shape="310227.11,4621919.53,0.00 310228.32,4621910.02,0.00 310228.70,4621907.05,0.00 310233.07,4621854.88,0.00 310233.98,4621842.46,0.00 310235.50,4621808.83,0.00 310235.69,4621804.87,0.00" speed="18.06" />
	<edge id="19342576_201001616_201001602" from="201001616" to="201001602" numLanes="1" shape="310850.28,4622334.03,0.00 310825.20,4622344.32,0.00 310810.02,4622350.54,0.00 310791.89,4622360.47,0.00 310770.10,4622377.04,0.00 310737.09,4622400.47,0.00" speed="8.33" />
	<edge id="19346976_201045519_201040545" from="201045519" to="201040545" numLanes="1" shape="311172.03,4622463.36,0.00 311131.47,4622486.85,0.00 311124.26,4622491.02,0.00 311053.03,4622535.46,0.00" speed="15.65" />
	<edge id="19343796_201015005_201014995" from="201015005" to="201014995" numLanes="2" shape="310121.09,4622042.46,0.00 310123.67,4622042.50,0.00 310173.40,4622050.51,0.00 310207.27,4622056.50,0.00" speed="8.33" />
	<edge id="613398736_201025029_201025037" from="201025029" to="201025037" numLanes="1" shape="309940.18,4622383.60,0.00 309912.85,4622388.10,0.00 309855.13,4622395.97,0.00" speed="8.33" />
	<edge id="19345972_201001358_201040442" from="201001358" to="201040442" numLanes="1" shape="310476.53,4622314.54,0.00 310477.96,4622296.62,0.00 310479.65,4622280.73,0.00 310486.99,4622211.98,0.00" speed="8.33" />
	<edge id="19346349_201009688_201032855" from="201009688" to="201032855" numLanes="1" shape="310428.94,4621812.57,0.00 310465.69,4621813.78,0.00" speed="13.89" />
	<edge id="19342598_201001892_201001616" from="201001892" to="201001616" numLanes="1" shape="310874.22,4622398.96,0.00 310850.28,4622334.03,0.00" speed="8.33" />
	<edge id="19347406_201045231_201027146" from="201045231" to="201027146" numLanes="2" shape="310063.43,4622164.99,0.00 310052.62,4622166.05,0.00" speed="8.33" />
	<edge id="19343212_201009101_201009095" from="201009101" to="201009095" numLanes="1" shape="310687.44,4622420.45,0.00 310692.12,4622380.55,0.00" speed="8.33" />
	<edge id="295037238_201004696_201001340" from="201004696" to="201001340" numLanes="1" shape="310322.49,4622336.92,0.00 310342.81,4622333.75,0.00" speed="18.06" />
	<edge id="92370014_457786434_201037994" from="457786434" to="201037994" numLanes="1" shape="310272.63,4620291.87,0.00 310272.13,4620313.89,0.00 310270.56,4620374.04,0.00 310270.34,4620384.71,0.00 310269.71,4620411.40,0.00 310269.54,4620418.11,0.00 310268.24,4620468.99,0.00 310267.54,4620499.01,0.00 310267.24,4620510.79,0.00 310266.30,4620546.49,0.00 310264.45,4620642.98,0.00 310263.47,4620681.45,0.00 310261.34,4620767.51,0.00 310259.50,4620817.45,0.00 310259.16,4620830.01,0.00 310257.62,4620891.05,0.00 310256.35,4620962.53,0.00 310256.12,4620978.98,0.00 310254.17,4621073.85,0.00 310253.91,4621087.04,0.00 310251.93,4621156.98,0.00 310251.80,4621173.98,0.00 310251.47,4621208.55,0.00 310251.06,4621219.76,0.00 310250.65,4621230.75,0.00 310249.91,4621250.70,0.00 310249.63,4621258.49,0.00 310247.21,4621331.97,0.00 310247.07,4621336.11,0.00 310245.37,4621412.05,0.00 310244.66,4621479.51,0.00 310244.46,4621489.84,0.00 310242.58,4621581.62,0.00 310242.12,4621600.02,0.00 310240.47,4621632.54,0.00 310238.38,4621682.99,0.00 310238.19,4621690.46,0.00" speed="18.06" />
	<edge id="295037238_201001366_201001362" from="201001366" to="201001362" numLanes="1" shape="310607.44,4622295.10,0.00 310565.99,4622301.00,0.00 310556.27,4622302.42,0.00" speed="18.06" />
	<edge id="19346439_201041758_201001340" from="201041758" to="201001340" numLanes="1" shape="310346.57,4622234.03,0.00 310344.92,4622244.97,0.00 310339.56,4622280.55,0.00 310342.81,4622333.75,0.00" speed="8.33" />
	<edge id="295037238_201001358_201001362" from="201001358" to="201001362" numLanes="1" shape="310476.53,4622314.54,0.00 310556.27,4622302.42,0.00" speed="18.06" />
	<edge id="19345807_201001851_201033005" from="201001851" to="201033005" numLanes="1" shape="310134.06,4622553.45,0.00 310142.07,4622492.14,0.00 310142.71,4622487.22,0.00 310143.23,4622483.28,0.00 310150.47,4622428.46,0.00" speed="18.06" />
	<edge id="19346514_201037940_201047008" from="201037940" to="201047008" numLanes="2" shape="310168.81,4622306.97,0.00 310116.81,4622311.02,0.00 310102.94,4622312.80,0.00 310074.01,4622316.51,0.00 310072.72,4622316.68,0.00 310057.91,4622318.58,0.00 309988.32,4622327.54,0.00 309941.88,4622334.11,0.00" speed="8.33" />
	<edge id="92385002_201015604_6755735045" from="201015604" to="6755735045" numLanes="2" shape="311240.72,4621320.39,0.00 311249.00,4621249.95,0.00 311254.76,4621209.95,0.00" speed="18.06" />
	<edge id="19347030_201046299_201011602" from="201046299" to="201011602" numLanes="1" shape="309940.85,4622643.02,0.00 309940.11,4622590.04,0.00" speed="13.89" />
	<edge id="19345763_201001362_201037413" from="201001362" to="201037413" numLanes="1" shape="310556.27,4622302.42,0.00 310559.18,4622339.51,0.00 310560.87,4622376.34,0.00" speed="8.33" />
	<edge id="19347030_201008621_201040778" from="201008621" to="201040778" numLanes="1" shape="309961.82,4621853.02,0.00 309963.60,4621775.97,0.00" speed="13.89" />
	<edge id="19347357_201045519_201057259" from="201045519" to="201057259" numLanes="1" shape="311172.03,4622463.36,0.00 311174.24,4622495.62,0.00 311174.84,4622504.42,0.00 311176.26,4622525.19,0.00 311177.72,4622546.47,0.00 311177.94,4622549.69,0.00 311178.85,4622563.02,0.00" speed="8.33" />
	<edge id="19346976_201051231_201051214" from="201051231" to="201051214" numLanes="1" shape="310907.15,4622709.53,0.00 310917.72,4622678.03,0.00 310927.90,4622653.98,0.00" speed="15.65" />
	<edge id="661055483_201037990_201037977" from="201037990" to="201037977" numLanes="1" shape="310235.69,4621804.87,0.00 310235.50,4621808.83,0.00 310233.98,4621842.46,0.00 310233.07,4621854.88,0.00 310228.70,4621907.05,0.00 310228.32,4621910.02,0.00 310227.11,4621919.53,0.00" speed="18.06" />
	<edge id="613398735_201047011_201047008" from="201047011" to="201047008" numLanes="1" shape="309870.73,4622342.22,0.00 309941.88,4622334.11,0.00" speed="8.33" />
	<edge id="19347030_201011602_201046299" from="201011602" to="201046299" numLanes="1" shape="309940.11,4622590.04,0.00 309940.85,4622643.02,0.00" speed="13.89" />
	<edge id="19347030_201053198_201053195" from="201053198" to="201053195" numLanes="1" shape="309952.92,4622069.48,0.00 309950.88,4622120.26,0.00 309948.57,4622177.59,0.00" speed="13.89" />
	<edge id="19344197_201019253_201019250" from="201019253" to="201019250" numLanes="1" shape="310869.95,4621660.96,0.00 310868.07,4621814.69,0.00" speed="8.33" />
	<edge id="19346341_201022356_201015009" from="201022356" to="201015009" numLanes="1" shape="310095.88,4621952.01,0.00 310082.22,4622036.49,0.00" speed="8.33" />
	<edge id="92384070_201015567_201015558" from="201015567" to="201015558" numLanes="2" shape="311191.18,4621876.03,0.00 311191.28,4621876.58,0.00 311192.94,4621891.99,0.00 311193.09,4621897.98,0.00 311202.29,4621983.73,0.00" speed="18.06" />
	<edge id="661055483_201037940_201001310" from="201037940" to="201001310" numLanes="1" shape="310168.81,4622306.97,0.00 310161.21,4622356.51,0.00" speed="18.06" />
	<edge id="19346349_201032214_201045284" from="201032214" to="201045284" numLanes="1" shape="310938.39,4621808.07,0.00 311000.60,4621798.51,0.00 311057.53,4621792.00,0.00" speed="13.89" />
	<edge id="19346349_201045284_201032214" from="201045284" to="201032214" numLanes="1" shape="311057.53,4621792.00,0.00 311000.60,4621798.51,0.00 310938.39,4621808.07,0.00" speed="13.89" />
	<edge id="19347406_201032309_201045231" from="201032309" to="201045231" numLanes="2" shape="310104.98,4622160.89,0.00 310063.43,4622164.99,0.00" speed="8.33" />
	<edge id="19346311_201001851_201044926" from="201001851" to="201044926" numLanes="2" shape="310134.06,4622553.45,0.00 310241.64,4622548.20,0.00" speed="8.33" />
	<edge id="661055483_201022348_201014995" from="201022348" to="201014995" numLanes="1" shape="310221.38,4621967.02,0.00 310207.27,4622056.50,0.00" speed="18.06" />
	<edge id="19343520_201011602_201011615" from="201011602" to="201011615" numLanes="1" shape="309940.11,4622590.04,0.00 309895.85,4622597.00,0.00 309844.53,4622605.03,0.00 309836.46,4622605.58,0.00 309820.42,4622606.67,0.00 309788.52,4622606.85,0.00" speed="8.33" />
	<edge id="19347384_201053198_201045236" from="201053198" to="201045236" numLanes="1" shape="309952.92,4622069.48,0.00 309975.26,4622073.99,0.00 310074.11,4622088.48,0.00" speed="8.33" />
	<edge id="19345749_201037218_201037213" from="201037218" to="201037213" numLanes="1" shape="310932.00,4622374.54,0.00 310945.42,4622403.52,0.00 310960.29,4622437.02,0.00" speed="8.33" />
	<edge id="19346813_201037970_9817745991" from="201037970" to="9817745991" numLanes="1" shape="310205.26,4622072.95,0.00 310319.32,4622054.24,0.00" speed="8.33" />
	<edge id="976882051_201045548_201045577" from="201045548" to="201045577" numLanes="2" shape="311116.83,4621991.99,0.00 311104.58,4621903.74,0.00 311104.48,4621899.24,0.00 311105.15,4621895.76,0.00 311106.56,4621893.04,0.00 311108.42,4621890.63,0.00 311111.35,4621888.89,0.00 311115.82,4621886.91,0.00 311122.47,4621885.44,0.00 311136.76,4621882.77,0.00 311143.89,4621881.16,0.00" speed="18.06" />
	<edge id="295037238_201001340_201004696" from="201001340" to="201004696" numLanes="1" shape="310342.81,4622333.75,0.00 310322.49,4622336.92,0.00" speed="18.06" />
	<edge id="19347030_201040778_201053200" from="201040778" to="201053200" numLanes="1" shape="309963.60,4621775.97,0.00 309968.45,4621654.96,0.00 309968.97,4621646.05,0.00" speed="13.89" />
	<edge id="92370014_201037990_201037994" from="201037990" to="201037994" numLanes="1" shape="310235.69,4621804.87,0.00 310235.75,4621800.51,0.00 310236.59,4621776.38,0.00 310237.78,4621744.35,0.00 310238.09,4621696.02,0.00 310238.19,4621690.46,0.00" speed="18.06" />
	<edge id="19345749_201037213_201014638" from="201037213" to="201014638" numLanes="1" shape="310960.29,4622437.02,0.00 310975.41,4622505.51,0.00" speed="8.33" />
	<edge id="19346341_201045231_201045236" from="201045231" to="201045236" numLanes="1" shape="310063.43,4622164.99,0.00 310067.39,4622136.10,0.00 310074.11,4622088.48,0.00" speed="8.33" />
	<edge id="19345963_8777152451_201037926" from="8777152451" to="201037926" numLanes="1" shape="310253.00,4622717.74,0.00 310248.48,4622715.66,0.00 310195.87,4622694.60,0.00 310143.98,4622676.31,0.00 310130.19,4622671.45,0.00 310116.09,4622666.48,0.00" speed="8.33" />
	<edge id="19346976_201037211_201040545" from="201037211" to="201040545" numLanes="1" shape="310994.34,4622573.01,0.00 311053.03,4622535.46,0.00" speed="15.65" />
	<edge id="19346853_201049680_201044481" from="201049680" to="201044481" numLanes="1" shape="310797.96,4622517.97,0.00 310765.66,4622448.49,0.00" speed="16.67" />
	<edge id="19345977_201038281_201040545" from="201038281" to="201040545" numLanes="1" shape="311011.21,4622345.00,0.00 311036.65,4622460.67,0.00 311053.03,4622535.46,0.00" speed="8.33" />
	<edge id="19347395_201053192_201027138" from="201053192" to="201027138" numLanes="2" shape="309944.73,4622284.47,0.00 310062.74,4622271.45,0.00" speed="8.33" />
	<edge id="19346038_201001388_201041328" from="201001388" to="201041328" numLanes="1" shape="310834.89,4622258.55,0.00 310825.37,4622185.03,0.00" speed="8.33" />
	<edge id="19345807_201036413_201037907" from="201036413" to="201037907" numLanes="1" shape="309990.07,4622895.05,0.00 309941.90,4622945.56,0.00" speed="18.06" />
	<edge id="19347395_201027138_201037944" from="201027138" to="201037944" numLanes="2" shape="310062.74,4622271.45,0.00 310065.13,4622271.15,0.00 310083.91,4622268.87,0.00 310100.74,4622266.81,0.00 310176.70,4622257.54,0.00" speed="8.33" />
	<edge id="19345370_201022353_201032315" from="201022353" to="201032315" numLanes="1" shape="310134.70,4621956.54,0.00 310141.11,4621909.48,0.00" speed="8.33" />
	<edge id="19347030_201025029_201047008" from="201025029" to="201047008" numLanes="1" shape="309940.18,4622383.60,0.00 309941.88,4622334.11,0.00" speed="13.89" />
	<edge id="19345220_201030186_201001377" from="201030186" to="201001377" numLanes="1" shape="310700.39,4622381.55,0.00 310729.35,4622274.45,0.00" speed="8.33" />
	<edge id="19346976_201040545_201037211" from="201040545" to="201037211" numLanes="1" shape="311053.03,4622535.46,0.00 310994.34,4622573.01,0.00" speed="15.65" />
	<edge id="19346740_201037213_201049680" from="201037213" to="201049680" numLanes="1" shape="310960.29,4622437.02,0.00 310946.48,4622443.49,0.00 310888.83,4622473.02,0.00 310797.96,4622517.97,0.00" speed="8.33" />
	<edge id="19347030_201053200_201040778" from="201053200" to="201040778" numLanes="1" shape="309968.97,4621646.05,0.00 309968.45,4621654.96,0.00 309963.60,4621775.97,0.00" speed="13.89" />
	<edge id="19346040_201032342_201041337" from="201032342" to="201041337" numLanes="1" shape="310350.01,4622389.05,0.00 310358.79,4622462.71,0.00 310367.97,4622539.02,0.00" speed="8.33" />
	<edge id="661055483_201037977_201022348" from="201037977" to="201022348" numLanes="1" shape="310227.11,4621919.53,0.00 310225.72,4621933.07,0.00 310223.60,4621953.51,0.00 310221.38,4621967.02,0.00" speed="18.06" />
	<edge id="19346080_201040442_201041758" from="201040442" to="201041758" numLanes="1" shape="310486.99,4622211.98,0.00 310425.63,4622221.05,0.00 310346.57,4622234.03,0.00" speed="8.33" />
	<edge id="19347030_201022360_201015022" from="201022360" to="201015022" numLanes="1" shape="309958.25,4621935.00,0.00 309956.63,4621979.90,0.00 309955.32,4622015.97,0.00" speed="13.89" />
	<edge id="19346275_201001892_201044481" from="201001892" to="201044481" numLanes="1" shape="310874.22,4622398.96,0.00 310765.66,4622448.49,0.00" speed="8.33" />
	<edge id="576712189_201026814_201041337" from="201026814" to="201041337" numLanes="1" shape="310392.75,4622538.03,0.00 310367.97,4622539.02,0.00" speed="8.33" />
	<edge id="19346349_201019250_201032214" from="201019250" to="201032214" numLanes="1" shape="310868.07,4621814.69,0.00 310900.86,4621812.13,0.00 310938.39,4621808.07,0.00" speed="13.89" />
	<edge id="295037238_201001346_201001340" from="201001346" to="201001340" numLanes="1" shape="310398.75,4622325.87,0.00 310342.81,4622333.75,0.00" speed="18.06" />
	<edge id="19346451_201046307_201046299" from="201046307" to="201046299" numLanes="1" shape="309880.67,4622648.96,0.00 309883.90,4622648.70,0.00 309884.71,4622648.62,0.00 309894.54,4622647.57,0.00 309912.29,4622645.78,0.00 309940.85,4622643.02,0.00" speed="8.33" />
	<edge id="19345807_201025008_201037938" from="201025008" to="201037938" numLanes="1" shape="310160.12,4622362.53,0.00 310152.99,4622407.50,0.00" speed="18.06" />
	<edge id="19342595_201001855_201001851" from="201001855" to="201001851" numLanes="1" shape="310036.65,4622568.04,0.00 310134.06,4622553.45,0.00" speed="8.33" />
	<edge id="19342570_201001328_201004696" from="201001328" to="201004696" numLanes="1" shape="310309.08,4622338.58,0.00 310322.49,4622336.92,0.00" speed="18.06" />
	<edge id="715003095_201033024_201001860" from="201033024" to="201001860" numLanes="1" shape="309987.09,4622447.46,0.00 309987.98,4622480.99,0.00 309987.67,4622541.45,0.00 309986.69,4622576.47,0.00" speed="8.33" />
	<edge id="19346853_201051157_201032342" from="201051157" to="201032342" numLanes="1" shape="310405.12,4622383.04,0.00 310350.01,4622389.05,0.00" speed="16.67" />
	<edge id="19345972_201040442_201001358" from="201040442" to="201001358" numLanes="1" shape="310486.99,4622211.98,0.00 310479.65,4622280.73,0.00 310477.96,4622296.62,0.00 310476.53,4622314.54,0.00" speed="8.33" />
	<edge id="661055483_201022348_201037977" from="201022348" to="201037977" numLanes="1" shape="310221.38,4621967.02,0.00 310223.60,4621953.51,0.00 310225.72,4621933.07,0.00 310227.11,4621919.53,0.00" speed="18.06" />
	<edge id="19345817_201037218_201038281" from="201037218" to="201038281" numLanes="1" shape="310932.00,4622374.54,0.00 311011.21,4622345.00,0.00" speed="8.33" />
	<edge id="19346976_201040545_201045519" from="201040545" to="201045519" numLanes="1" shape="311053.03,4622535.46,0.00 311124.26,4622491.02,0.00 311131.47,4622486.85,0.00 311172.03,4622463.36,0.00" speed="15.65" />
	<edge id="19347030_201022360_201008621" from="201022360" to="201008621" numLanes="1" shape="309958.25,4621935.00,0.00 309961.82,4621853.02,0.00" speed="13.89" />
	<edge id="92384053_201015547_201045498" from="201015547" to="201045498" numLanes="1" shape="311245.96,4622409.47,0.00 311207.33,4622437.49,0.00" speed="18.06" />
	<edge id="19345977_201038281_201001399" from="201038281" to="201001399" numLanes="1" shape="311011.21,4622345.00,0.00 310995.50,4622279.53,0.00 310986.71,4622236.98,0.00" speed="8.33" />
	<edge id="19345749_201014638_201037211" from="201014638" to="201037211" numLanes="1" shape="310975.41,4622505.51,0.00 310994.34,4622573.01,0.00" speed="8.33" />
	<edge id="715003096_201001855_201001860" from="201001855" to="201001860" numLanes="1" shape="310036.65,4622568.04,0.00 310032.20,4622568.79,0.00 309986.69,4622576.47,0.00" speed="8.33" />
	<edge id="19345807_201037907_201035156" from="201037907" to="201035156" numLanes="1" shape="309941.90,4622945.56,0.00 309923.29,4622966.21,0.00 309914.46,4622974.84,0.00" speed="18.06" />
	<edge id="19346349_201045259_201032855" from="201045259" to="201032855" numLanes="1" shape="310526.91,4621816.38,0.00 310465.69,4621813.78,0.00" speed="13.89" />
	<edge id="19343815_201015236_201015229" from="201015236" to="201015229" numLanes="2" shape="310315.51,4622149.13,0.00 310309.38,4622146.46,0.00 310262.63,4622153.04,0.00 310242.02,4622155.94,0.00 310191.62,4622163.03,0.00" speed="8.33" />
	<edge id="796793282_7451723649_201025068" from="7451723649" to="201025068" numLanes="2" shape="310243.70,4622548.01,0.00 310297.53,4622546.22,0.00 310344.53,4622539.98,0.00" speed="8.33" />
	<edge id="295037238_201001362_201001358" from="201001362" to="201001358" numLanes="1" shape="310556.27,4622302.42,0.00 310476.53,4622314.54,0.00" speed="18.06" />
	<edge id="19346853_201009095_201030186" from="201009095" to="201030186" numLanes="1" shape="310692.12,4622380.55,0.00 310700.39,4622381.55,0.00" speed="16.67" />
	<edge id="295037238_201001354_201001358" from="201001354" to="201001358" numLanes="1" shape="310465.23,4622315.95,0.00 310476.53,4622314.54,0.00" speed="18.06" />
	<edge id="976882052_201001412_201001404" from="201001412" to="201001404" numLanes="1" shape="311225.27,4622202.46,0.00 311189.18,4622206.97,0.00 311139.20,4622214.96,0.00" speed="18.06" />
	<edge id="715003095_201001860_201033024" from="201001860" to="201033024" numLanes="1" shape="309986.69,4622576.47,0.00 309987.67,4622541.45,0.00 309987.98,4622480.99,0.00 309987.09,4622447.46,0.00" speed="8.33" />
	<edge id="19344197_201019250_201019253" from="201019250" to="201019253" numLanes="1" shape="310868.07,4621814.69,0.00 310869.95,4621660.96,0.00" speed="8.33" />
	<edge id="19346853_201051171_201051157" from="201051171" to="201051157" numLanes="1" shape="310469.15,4622377.45,0.00 310464.08,4622378.03,0.00 310445.05,4622378.98,0.00 310405.12,4622383.04,0.00" speed="16.67" />
	<edge id="19346853_201030186_201009095" from="201030186" to="201009095" numLanes="1" shape="310700.39,4622381.55,0.00 310692.12,4622380.55,0.00" speed="16.67" />
	<edge id="19344187_201019146_201001366" from="201019146" to="201001366" numLanes="1" shape="310623.52,4622188.03,0.00 310607.44,4622295.10,0.00" speed="8.33" />
	<edge id="796793282_201044926_7451723649" from="201044926" to="7451723649" numLanes="2" shape="310241.64,4622548.20,0.00 310243.70,4622548.01,0.00" speed="8.33" />
	<edge id="295037238_201001370_201001366" from="201001370" to="201001366" numLanes="1" shape="310660.73,4622287.14,0.00 310607.44,4622295.10,0.00" speed="18.06" />
	<edge id="92384070_201015572_201015567" from="201015572" to="201015567" numLanes="2" shape="311183.51,4621825.01,0.00 311189.19,4621847.75,0.00 311191.18,4621876.03,0.00" speed="18.06" />
	<edge id="19342598_201001388_201001616" from="201001388" to="201001616" numLanes="1" shape="310834.89,4622258.55,0.00 310850.28,4622334.03,0.00" speed="8.33" />
	<edge id="19347105_201001346_201051157" from="201001346" to="201051157" numLanes="2" shape="310398.75,4622325.87,0.00 310402.44,4622354.00,0.00 310405.12,4622383.04,0.00" speed="8.33" />
	<edge id="19346373_201045509_201001404" from="201045509" to="201001404" numLanes="2" shape="311183.68,4622434.01,0.00 311177.97,4622410.05,0.00 311154.19,4622300.45,0.00 311142.40,4622238.54,0.00 311139.20,4622214.96,0.00" speed="18.06" />
	<edge id="19345358_201032227_201032214" from="201032227" to="201032214" numLanes="1" shape="310943.50,4621344.46,0.00 310944.32,4621422.99,0.00 310944.11,4621487.55,0.00 310942.14,4621605.05,0.00 310940.80,4621651.98,0.00 310938.39,4621808.07,0.00" speed="8.33" />
	<edge id="19345972_201015220_201040442" from="201015220" to="201040442" numLanes="1" shape="310497.75,4622115.47,0.00 310488.43,4622199.08,0.00 310486.99,4622211.98,0.00" speed="8.33" />
	<edge id="19347030_201001870_201011602" from="201001870" to="201011602" numLanes="1" shape="309940.53,4622584.03,0.00 309940.11,4622590.04,0.00" speed="13.89" />
	<edge id="661055483_201037960_201015229" from="201037960" to="201015229" numLanes="1" shape="310193.50,4622151.31,0.00 310191.62,4622163.03,0.00" speed="18.06" />
	<edge id="19346743_201049707_201045284" from="201049707" to="201045284" numLanes="1" shape="311065.18,4621883.13,0.00 311057.53,4621792.00,0.00" speed="8.33" />
	<edge id="92385002_6755735045_201015604" from="6755735045" to="201015604" numLanes="2" shape="311254.76,4621209.95,0.00 311249.00,4621249.95,0.00 311240.72,4621320.39,0.00" speed="18.06" />
	<edge id="92385002_201015604_201015575" from="201015604" to="201015575" numLanes="2" shape="311240.72,4621320.39,0.00 311237.97,4621341.39,0.00 311233.37,4621376.45,0.00 311229.23,4621409.95,0.00 311226.57,4621431.53,0.00 311218.22,4621497.59,0.00 311215.97,4621515.49,0.00 311208.70,4621573.20,0.00 311203.17,4621617.15,0.00 311198.44,4621655.62,0.00 311197.06,4621666.73,0.00 311187.45,4621744.13,0.00 311185.38,4621766.63,0.00 311184.84,4621781.75,0.00" speed="18.06" />
	<edge id="19345807_201033005_201037938" from="201033005" to="201037938" numLanes="1" shape="310150.47,4622428.46,0.00 310152.99,4622407.50,0.00" speed="18.06" />
	<edge id="19346676_201045284_201049246" from="201045284" to="201049246" numLanes="1" shape="311057.53,4621792.00,0.00 311060.09,4621718.49,0.00 311071.96,4621518.51,0.00 311076.93,4621442.05,0.00 311082.25,4621331.46,0.00" speed="8.33" />
	<edge id="295037238_201001362_201001366" from="201001362" to="201001366" numLanes="1" shape="310556.27,4622302.42,0.00 310565.99,4622301.00,0.00 310607.44,4622295.10,0.00" speed="18.06" />
	<edge id="661055483_201014995_201037970" from="201014995" to="201037970" numLanes="1" shape="310207.27,4622056.50,0.00 310205.26,4622072.95,0.00" speed="18.06" />
	<edge id="19344939_201027144_201027138" from="201027144" to="201027138" numLanes="1" shape="310059.35,4622225.32,0.00 310062.74,4622271.45,0.00" speed="8.33" />
	<edge id="19346349_201045284_201015575" from="201045284" to="201015575" numLanes="1" shape="311057.53,4621792.00,0.00 311110.25,4621789.17,0.00 311117.16,4621787.53,0.00 311164.22,4621782.63,0.00 311184.84,4621781.75,0.00" speed="13.89" />
	<edge id="19346676_201049246_201045284" from="201049246" to="201045284" numLanes="1" shape="311082.25,4621331.46,0.00 311076.93,4621442.05,0.00 311071.96,4621518.51,0.00 311060.09,4621718.49,0.00 311057.53,4621792.00,0.00" speed="8.33" />
	<edge id="19345439_201033020_201033005" from="201033020" to="201033005" numLanes="1" shape="310020.02,4622443.03,0.00 310053.55,4622439.47,0.00 310099.08,4622433.49,0.00 310130.15,4622431.00,0.00 310150.47,4622428.46,0.00" speed="8.33" />
	<edge id="19345374_201032342_201001340" from="201032342" to="201001340" numLanes="2" shape="310350.01,4622389.05,0.00 310342.81,4622333.75,0.00" speed="8.33" />
	<edge id="295037238_201001354_201001346" from="201001354" to="201001346" numLanes="1" shape="310465.23,4622315.95,0.00 310417.82,4622322.70,0.00 310398.75,4622325.87,0.00" speed="18.06" />
	<edge id="92385002_201015695_201015710" from="201015695" to="201015710" numLanes="2" shape="311413.18,4620008.52,0.00 311430.02,4619870.84,0.00 311441.41,4619778.00,0.00 311445.27,4619754.01,0.00 311463.79,4619612.97,0.00 311471.14,4619553.55,0.00" speed="18.06" />
	<edge id="295037238_201001377_201001370" from="201001377" to="201001370" numLanes="1" shape="310729.35,4622274.45,0.00 310711.04,4622277.26,0.00 310695.11,4622279.69,0.00 310660.73,4622287.14,0.00" speed="18.06" />
	<edge id="19346373_201045519_201045509" from="201045519" to="201045509" numLanes="2" shape="311172.03,4622463.36,0.00 311177.32,4622454.51,0.00 311182.12,4622444.05,0.00 311183.68,4622434.01,0.00" speed="18.06" />
	<edge id="19345817_201038281_201037218" from="201038281" to="201037218" numLanes="1" shape="311011.21,4622345.00,0.00 310932.00,4622374.54,0.00" speed="8.33" />
	<edge id="19342598_201001616_201001388" from="201001616" to="201001388" numLanes="1" shape="310850.28,4622334.03,0.00 310834.89,4622258.55,0.00" speed="8.33" />
	<edge id="19347099_201033040_8548256579" from="201033040" to="8548256579" numLanes="1" shape="309852.16,4622472.28,0.00 309843.16,4622477.95,0.00 309843.40,4622511.89,0.00 309843.72,4622524.13,0.00" speed="8.33" />
	<edge id="19346743_201045284_201049707" from="201045284" to="201049707" numLanes="1" shape="311057.53,4621792.00,0.00 311065.18,4621883.13,0.00" speed="8.33" />
	<edge id="19347030_201053195_201053192" from="201053195" to="201053192" numLanes="1" shape="309948.57,4622177.59,0.00 309945.94,4622246.94,0.00 309944.73,4622284.47,0.00" speed="13.89" />
	<edge id="295037238_201001370_201001377" from="201001370" to="201001377" numLanes="1" shape="310660.73,4622287.14,0.00 310695.11,4622279.69,0.00 310711.04,4622277.26,0.00 310729.35,4622274.45,0.00" speed="18.06" />
	<edge id="19345355_201032189_201015575" from="201032189" to="201015575" numLanes="1" shape="311579.84,4621748.64,0.00 311443.96,4621759.08,0.00 311399.72,4621763.53,0.00 311396.95,4621763.77,0.00 311375.49,4621765.63,0.00 311360.94,4621766.89,0.00 311308.54,4621771.49,0.00 311273.13,4621774.58,0.00 311254.54,4621776.58,0.00 311229.73,4621778.23,0.00 311225.18,4621778.53,0.00 311184.84,4621781.75,0.00" speed="8.33" />
	<edge id="613398735_201047008_201047011" from="201047008" to="201047011" numLanes="1" shape="309941.88,4622334.11,0.00 309870.73,4622342.22,0.00" speed="8.33" />
	<edge id="19347030_201008621_201022360" from="201008621" to="201022360" numLanes="1" shape="309961.82,4621853.02,0.00 309958.25,4621935.00,0.00" speed="13.89" />
	<edge id="19345370_201015005_201032309" from="201015005" to="201032309" numLanes="1" shape="310121.09,4622042.46,0.00 310111.26,4622102.05,0.00 310104.98,4622160.89,0.00" speed="8.33" />
	<edge id="19346275_201037218_201001892" from="201037218" to="201001892" numLanes="1" shape="310932.00,4622374.54,0.00 310874.22,4622398.96,0.00" speed="8.33" />
	<edge id="19347030_201053195_201053198" from="201053195" to="201053198" numLanes="1" shape="309948.57,4622177.59,0.00 309950.88,4622120.26,0.00 309952.92,4622069.48,0.00" speed="13.89" />
	<edge id="19345807_201037933_201001851" from="201037933" to="201001851" numLanes="1" shape="310126.37,4622605.01,0.00 310134.06,4622553.45,0.00" speed="18.06" />
	<edge id="19345977_201001399_201038281" from="201001399" to="201038281" numLanes="1" shape="310986.71,4622236.98,0.00 310995.50,4622279.53,0.00 311011.21,4622345.00,0.00" speed="8.33" />