<connections>
	<connection from="92370014_201037994_457786434" to="92370014_457786434_201037994" />
	<connection from="576712189_201026814_201044957" to="576712189_201044957_201026814" />
	<connection from="19346349_201045256_201037990" to="19346349_201037990_201045256" />
	<connection from="19346349_201045256_201037990" to="92370014_201037990_201037994" />
	<connection from="19346349_201045256_201037990" to="661055483_201037990_201037977" />
	<connection from="19346349_201030085_201045259" to="19346349_201045259_201032855" />
	<connection from="19346349_201030085_201045259" to="692239767_201045259_201055982" />
	<connection from="19346349_201030085_201045259" to="19346349_201045259_201030085" />
	<connection from="92385002_201015710_201015507" to="92385002_201015507_201015710" />
	<connection from="661055483_201037977_201037990" to="19346349_201037990_201045256" />
	<connection from="661055483_201037977_201037990" to="92370014_201037990_201037994" />
	<connection from="661055483_201037977_201037990" to="661055483_201037990_201037977" />
	<connection from="19342576_201001616_201001602" to="19346853_201001602_201030186" />
	<connection from="19342576_201001616_201001602" to="19346853_201001602_201044481" />
	<connection from="19342576_201001616_201001602" to="19342576_201001602_201001616" />
	<connection from="19346976_201045519_201040545" to="19345977_201040545_201038281" />
	<connection from="19346976_201045519_201040545" to="19346976_201040545_201045519" />
	<connection from="19346976_201045519_201040545" to="19346976_201040545_201037211" />
	<connection from="19343796_201015005_201014995" to="661055483_201014995_201037970" />
	<connection from="19343796_201015005_201014995" to="661055483_201014995_201022348" />
	<connection from="613398736_201025029_201025037" to="613398736_201025037_201025029" />
	<connection from="19345972_201001358_201040442" to="19345972_201040442_201015220" />
	<connection from="19345972_201001358_201040442" to="19346080_201040442_201041758" />
	<connection from="19345972_201001358_201040442" to="19345972_201040442_201001358" />
	<connection from="19346349_201009688_201032855" to="19346349_201032855_201045259" />
	<connection from="19346349_201009688_201032855" to="19346349_201032855_201009688" />
	<connection from="19346349_201009688_201032855" to="19345425_201032855_201032862" />
	<connection from="19342598_201001892_201001616" to="19342598_201001616_201001892" />
	<connection from="19342598_201001892_201001616" to="19342598_201001616_201001388" />
	<connection from="19342598_201001892_201001616" to="19342576_201001616_201001602" />
	<connection from="19342598_201001892_201001616" to="19342576_201001616_201001633" />
	<connection from="19347406_201045231_201027146" to="19347406_201027146_201053195" />
	<connection from="19347406_201045231_201027146" to="19344939_201027146_201027144" />
	<connection from="19343212_201009101_201009095" to="19343212_201009095_201009101" />
	<connection from="19343212_201009101_201009095" to="19346853_201009095_201037413" />
	<connection from="19343212_201009101_201009095" to="19346853_201009095_201030186" />
	<connection from="295037238_201004696_201001340" to="295037238_201001340_201001346" />
	<connection from="295037238_201004696_201001340" to="295037238_201001340_201004696" />
	<connection from="295037238_201004696_201001340" to="19346439_201001340_201041758" />
	<connection from="92370014_457786434_201037994" to="92370014_201037994_457786434" />
	<connection from="92370014_457786434_201037994" to="92370014_201037994_201037990" />
	<connection from="295037238_201001366_201001362" to="295037238_201001362_201001366" />
	<connection from="295037238_201001366_201001362" to="295037238_201001362_201001358" />
	<connection from="295037238_201001366_201001362" to="19345763_201001362_201037413" />
	<connection from="19346439_201041758_201001340" to="295037238_201001340_201001346" />
	<connection from="19346439_201041758_201001340" to="295037238_201001340_201004696" />
	<connection from="19346439_201041758_201001340" to="19346439_201001340_201041758" />
	<connection from="295037238_201001358_201001362" to="295037238_201001362_201001366" />
	<connection from="295037238_201001358_201001362" to="295037238_201001362_201001358" />
	<connection from="295037238_201001358_201001362" to="19345763_201001362_201037413" />
	<connection from="19345807_201001851_201033005" to="19345807_201033005_201037938" />
	<connection from="19345807_201001851_201033005" to="19345807_201033005_201001851" />
	<connection from="19345807_201001851_201033005" to="19345439_201033005_201033020" />
	<connection from="19346514_201037940_201047008" to="19347030_201047008_201025029" />
	<connection from="19346514_201037940_201047008" to="19347030_201047008_201053192" />
	<connection from="19346514_201037940_201047008" to="613398735_201047008_201047011" />
	<connection from="92385002_201015604_6755735045" to="92385002_6755735045_201015637" />
	<connection from="92385002_201015604_6755735045" to="92385002_6755735045_201015604" />
	<connection from="19347030_201046299_201011602" to="19343520_201011602_201011615" />
	<connection from="19347030_201046299_201011602" to="19347030_201011602_201001870" />
	<connection from="19347030_201046299_201011602" to="19347030_201011602_201046299" />
	<connection from="19345763_201001362_201037413" to="19346853_201037413_201009095" />
	<connection from="19345763_201001362_201037413" to="19345763_201037413_201001362" />
	<connection from="19345763_201001362_201037413" to="19346853_201037413_201051171" />
	<connection from="19347030_201008621_201040778" to="19346007_201040778_201040805" />
	<connection from="19347030_201008621_201040778" to="19347030_201040778_201053200" />
	<connection from="19347030_201008621_201040778" to="19347030_201040778_201008621" />
	<connection from="19347357_201045519_201057259" to="19347357_201057259_201045519" />
	<connection from="19346976_201051231_201051214" to="19346976_201051214_201037211" />
	<connection from="19346976_201051231_201051214" to="19346976_201051214_201051231" />
	<connection from="19346976_201051231_201051214" to="19346853_201051214_201014645" />
	<connection from="661055483_201037990_201037977" to="661055483_201037977_201022348" />
	<connection from="661055483_201037990_201037977" to="661055483_201037977_201037990" />
	<connection from="661055483_201037990_201037977" to="19347062_201037977_201032315" />
	<connection from="613398735_201047011_201047008" to="19347030_201047008_201025029" />
	<connection from="613398735_201047011_201047008" to="19347030_201047008_201053192" />
	<connection from="613398735_201047011_201047008" to="613398735_201047008_201047011" />
	<connection from="19347030_201011602_201046299" to="19347030_201046299_201037907" />
	<connection from="19347030_201011602_201046299" to="19346451_201046299_201046307" />
	<connection from="19347030_201011602_201046299" to="19347030_201046299_201011602" />
	<connection from="19347030_201053198_201053195" to="19347030_201053195_201053192" />
	<connection from="19347030_201053198_201053195" to="929513871_201053195_8620388691" />
	<connection from="19347030_201053198_201053195" to="19347030_201053195_201053198" />
	<connection from="19344197_201019253_201019250" to="19344197_201019250_201019253" />
	<connection from="19344197_201019253_201019250" to="19346349_201019250_201032214" />
	<connection from="19344197_201019253_201019250" to="19346349_201019250_201030085" />
	<connection from="19346341_201022356_201015009" to="19343796_201015009_201015005" />
	<connection from="19346341_201022356_201015009" to="19346341_201015009_201022356" />
	<connection from="19346341_201022356_201015009" to="19346341_201015009_201045236" />
	<connection from="92384070_201015567_201015558" to="92384070_201015558_201001412" />
	<connection from="92384070_201015567_201015558" to="19346665_201015558_201045548" />
	<connection from="661055483_201037940_201001310" to="19345807_201001310_201025008" />
	<connection from="661055483_201037940_201001310" to="19342570_201001310_201001328" />
	<connection from="661055483_201037940_201001310" to="661055483_201001310_201037940" />
	<connection from="19346349_201032214_201045284" to="19346676_201045284_201049246" />
	<connection from="19346349_201032214_201045284" to="19346743_201045284_201049707" />
	<connection from="19346349_201032214_201045284" to="19346349_201045284_201032214" />
	<connection from="19346349_201032214_201045284" to="19346349_201045284_201015575" />
	<connection from="19346349_201045284_201032214" to="19346349_201032214_201045284" />
	<connection from="19346349_201045284_201032214" to="19346349_201032214_201019250" />
	<connection from="19346349_201045284_201032214" to="19345358_201032214_201032227" />
	<connection from="19347406_201032309_201045231" to="19347406_201045231_201027146" />
	<connection from="19347406_201032309_201045231" to="19346341_201045231_201045236" />
	<connection from="19346311_201001851_201044926" to="796793282_201044926_7451723649" />
	<connection from="661055483_201022348_201014995" to="661055483_201014995_201037970" />
	<connection from="661055483_201022348_201014995" to="661055483_201014995_201022348" />
	<connection from="19343520_201011602_201011615" to="19343520_201011615_201011602" />
	<connection from="19347384_201053198_201045236" to="19347384_201045236_201053198" />
	<connection from="19347384_201053198_201045236" to="19346341_201045236_201045231" />
	<connection from="19347384_201053198_201045236" to="19346341_201045236_201015009" />
	<connection from="19345749_201037218_201037213" to="19345749_201037213_201037218" />
	<connection from="19345749_201037218_201037213" to="19345749_201037213_201014638" />
	<connection from="19345749_201037218_201037213" to="19346740_201037213_201049680" />
	<connection from="19346813_201037970_9817745991" to="19346813_9817745991_201037970" />
	<connection from="976882051_201045548_201045577" to="976882051_201045577_201015572" />
	<connection from="976882051_201045548_201045577" to="19346375_201045577_201015567" />
	<connection from="295037238_201001340_201004696" to="295037238_201004696_201001340" />
	<connection from="295037238_201001340_201004696" to="19342570_201004696_201001328" />
	<connection from="19347030_201040778_201053200" to="19347030_201053200_201040778" />
	<connection from="92370014_201037990_201037994" to="92370014_201037994_457786434" />
	<connection from="92370014_201037990_201037994" to="92370014_201037994_201037990" />
	<connection from="19345749_201037213_201014638" to="19345749_201014638_201037211" />
	<connection from="19345749_201037213_201014638" to="19343770_201014638_201014645" />
	<connection from="19345749_201037213_201014638" to="19345749_201014638_201037213" />
	<connection from="19346341_201045231_201045236" to="19347384_201045236_201053198" />
	<connection from="19346341_201045231_201045236" to="19346341_201045236_201045231" />
	<connection from="19346341_201045231_201045236" to="19346341_201045236_201015009" />
	<connection from="19345963_8777152451_201037926" to="19345963_201037926_8777152451" />
	<connection from="19345963_8777152451_201037926" to="19345807_201037926_201037933" />
	<connection from="19345963_8777152451_201037926" to="19345807_201037926_201016258" />
	<connection from="19346976_201037211_201040545" to="19345977_201040545_201038281" />
	<connection from="19346976_201037211_201040545" to="19346976_201040545_201045519" />
	<connection from="19346976_201037211_201040545" to="19346976_201040545_201037211" />
	<connection from="19346853_201049680_201044481" to="19346853_201044481_201049680" />
	<connection from="19346853_201049680_201044481" to="19346275_201044481_201001892" />
	<connection from="19346853_201049680_201044481" to="19346853_201044481_201001602" />
	<connection from="19345977_201038281_201040545" to="19345977_201040545_201038281" />
	<connection from="19345977_201038281_201040545" to="19346976_201040545_201045519" />
	<connection from="19345977_201038281_201040545" to="19346976_201040545_201037211" />
	<connection from="19347395_201053192_201027138" to="19347395_201027138_201037944" />
	<connection from="19347395_201053192_201027138" to="19344939_201027138_201027144" />
	<connection from="19346038_201001388_201041328" to="19346038_201041328_201001388" />
	<connection from="19345807_201036413_201037907" to="19345807_201037907_201035156" />
	<connection from="19345807_201036413_201037907" to="19345807_201037907_201036413" />
	<connection from="19345807_201036413_201037907" to="19347030_201037907_201046299" />
	<connection from="19347395_201027138_201037944" to="661055483_201037944_201037940" />
	<connection from="19347395_201027138_201037944" to="661055483_201037944_201037948" />
	<connection from="19345370_201022353_201032315" to="19347062_201032315_201008632" />
	<connection from="19345370_201022353_201032315" to="19347062_201032315_201037977" />
	<connection from="19345370_201022353_201032315" to="19345370_201032315_201022353" />
	<connection from="19347030_201025029_201047008" to="19347030_201047008_201025029" />
	<connection from="19347030_201025029_201047008" to="19347030_201047008_201053192" />
	<connection from="19347030_201025029_201047008" to="613398735_201047008_201047011" />
	<connection from="19345220_201030186_201001377" to="295037238_201001377_201001370" />
	<connection from="19345220_201030186_201001377" to="295037238_201001377_201001388" />
	<connection from="19345220_201030186_201001377" to="19345220_201001377_201030186" />
	<connection from="19346976_201040545_201037211" to="19346976_201037211_201051214" />
	<connection from="19346976_201040545_201037211" to="19346976_201037211_201040545" />
	<connection from="19346976_201040545_201037211" to="19345749_201037211_201014638" />
	<connection from="19346740_201037213_201049680" to="19346853_201049680_201014645" />
	<connection from="19346740_201037213_201049680" to="19346740_201049680_201037213" />
	<connection from="19346740_201037213_201049680" to="19346853_201049680_201044481" />
	<connection from="19347030_201053200_201040778" to="19346007_201040778_201040805" />
	<connection from="19347030_201053200_201040778" to="19347030_201040778_201053200" />
	<connection from="19347030_201053200_201040778" to="19347030_201040778_201008621" />
	<connection from="19346040_201032342_201041337" to="576712189_201041337_201026814" />
	<connection from="19346040_201032342_201041337" to="19346040_201041337_201032342" />
	<connection from="661055483_201037977_201022348" to="661055483_201022348_201014995" />
	<connection from="661055483_201037977_201022348" to="661055483_201022348_201037977" />
	<connection from="661055483_201037977_201022348" to="19344486_201022348_201022353" />
	<connection from="19346080_201040442_201041758" to="19346439_201041758_201015206" />
	<connection from="19346080_201040442_201041758" to="19346080_201041758_201040442" />
	<connection from="19346080_201040442_201041758" to="19346439_201041758_201001340" />
	<connection from="19347030_201022360_201015022" to="19347030_201015022_201053198" />
	<connection from="19347030_201022360_201015022" to="19347030_201015022_201022360" />
	<connection from="19347030_201022360_201015022" to="19343796_201015022_201015009" />
	<connection from="19346275_201001892_201044481" to="19346853_201044481_201049680" />
	<connection from="19346275_201001892_201044481" to="19346275_201044481_201001892" />
	<connection from="19346275_201001892_201044481" to="19346853_201044481_201001602" />
	<connection from="576712189_201026814_201041337" to="576712189_201041337_201026814" />
	<connection from="576712189_201026814_201041337" to="19346040_201041337_201032342" />
	<connection from="19346349_201019250_201032214" to="19346349_201032214_201045284" />
	<connection from="19346349_201019250_201032214" to="19346349_201032214_201019250" />
	<connection from="19346349_201019250_201032214" to="19345358_201032214_201032227" />
	<connection from="295037238_201001346_201001340" to="295037238_201001340_201001346" />
	<connection from="295037238_201001346_201001340" to="295037238_201001340_201004696" />
	<connection from="295037238_201001346_201001340" to="19346439_201001340_201041758" />
	<connection from="19346451_201046307_201046299" to="19347030_201046299_201037907" />
	<connection from="19346451_201046307_201046299" to="19346451_201046299_201046307" />
	<connection from="19346451_201046307_201046299" to="19347030_201046299_201011602" />
	<connection from="19345807_201025008_201037938" to="19345807_201037938_201033005" />
	<connection from="19345807_201025008_201037938" to="19346853_201037938_201034455" />
	<connection from="19345807_201025008_201037938" to="19345807_201037938_201025008" />
	<connection from="19342595_201001855_201001851" to="19345807_201001851_201037933" />
	<connection from="19342595_201001855_201001851" to="19345807_201001851_201033005" />
	<connection from="19342595_201001855_201001851" to="19342595_201001851_201001855" />
	<connection from="19342595_201001855_201001851" to="19346311_201001851_201044926" />
	<connection from="19342570_201001328_201004696" to="295037238_201004696_201001340" />
	<connection from="19342570_201001328_201004696" to="19342570_201004696_201001328" />
	<connection from="715003095_201033024_201001860" to="715003094_201001860_201001870" />
	<connection from="715003095_201033024_201001860" to="19345701_201001860_201036413" />
	<connection from="715003095_201033024_201001860" to="715003096_201001860_201001855" />
	<connection from="715003095_201033024_201001860" to="715003095_201001860_201033024" />
	<connection from="19346853_201051157_201032342" to="19346040_201032342_201041337" />
	<connection from="19346853_201051157_201032342" to="19346853_201032342_201051157" />
	<connection from="19346853_201051157_201032342" to="19345374_201032342_201001340" />
	<connection from="19346853_201051157_201032342" to="19346853_201032342_201034455" />
	<connection from="19345972_201040442_201001358" to="295037238_201001358_201001362" />
	<connection from="19345972_201040442_201001358" to="295037238_201001358_201001354" />
	<connection from="19345972_201040442_201001358" to="19345972_201001358_201040442" />
	<connection from="661055483_201022348_201037977" to="661055483_201037977_201022348" />
	<connection from="661055483_201022348_201037977" to="661055483_201037977_201037990" />
	<connection from="661055483_201022348_201037977" to="19347062_201037977_201032315" />
	<connection from="19345817_201037218_201038281" to="19345977_201038281_201001399" />
	<connection from="19345817_201037218_201038281" to="19345977_201038281_201040545" />
	<connection from="19345817_201037218_201038281" to="19345817_201038281_201037218" />
	<connection from="19346976_201040545_201045519" to="19346373_201045519_201045509" />
	<connection from="19346976_201040545_201045519" to="19347357_201045519_201057259" />
	<connection from="19346976_201040545_201045519" to="19346976_201045519_201040545" />
	<connection from="19347030_201022360_201008621" to="19343161_201008621_201008632" />
	<connection from="19347030_201022360_201008621" to="19347030_201008621_201040778" />
	<connection from="19347030_201022360_201008621" to="19347030_201008621_201022360" />
	<connection from="92384053_201015547_201045498" to="1096221895_201045498_201045519" />
	<connection from="92384053_201015547_201045498" to="19346369_201045498_201045509" />
	<connection from="19345977_201038281_201001399" to="295037238_201001399_201001404" />
	<connection from="19345977_201038281_201001399" to="295037238_201001399_201001388" />
	<connection from="19345977_201038281_201001399" to="19345977_201001399_201038281" />
	<connection from="19345749_201014638_201037211" to="19346976_201037211_201051214" />
	<connection from="19345749_201014638_201037211" to="19346976_201037211_201040545" />
	<connection from="19345749_201014638_201037211" to="19345749_201037211_201014638" />
	<connection from="715003096_201001855_201001860" to="715003094_201001860_201001870" />
	<connection from="715003096_201001855_201001860" to="19345701_201001860_201036413" />
	<connection from="715003096_201001855_201001860" to="715003096_201001860_201001855" />
	<connection from="715003096_201001855_201001860" to="715003095_201001860_201033024" />
	<connection from="19345807_201037907_201035156" to="19345807_201035156_201037907" />
	<connection from="19346349_201045259_201032855" to="19346349_201032855_201045259" />
	<connection from="19346349_201045259_201032855" to="19346349_201032855_201009688" />
	<connection from="19346349_201045259_201032855" to="19345425_201032855_201032862" />
	<connection from="19343815_201015236_201015229" to="661055483_201015229_201037952" />
	<connection from="19343815_201015236_201015229" to="661055483_201015229_201037960" />
	<connection from="796793282_7451723649_201025068" to="796793282_201025068_201041337" />
	<connection from="796793282_7451723649_201025068" to="19344737_201025068_201025071" />
	<connection from="295037238_201001362_201001358" to="295037238_201001358_201001362" />
	<connection from="295037238_201001362_201001358" to="295037238_201001358_201001354" />
	<connection from="295037238_201001362_201001358" to="19345972_201001358_201040442" />
	<connection from="19346853_201009095_201030186" to="19346853_201030186_201009095" />
	<connection from="19346853_201009095_201030186" to="19345220_201030186_201001377" />
	<connection from="19346853_201009095_201030186" to="19346853_201030186_201001602" />
	<connection from="295037238_201001354_201001358" to="295037238_201001358_201001362" />
	<connection from="295037238_201001354_201001358" to="295037238_201001358_201001354" />
	<connection from="295037238_201001354_201001358" to="19345972_201001358_201040442" />
	<connection from="976882052_201001412_201001404" to="976882052_201001404_201001412" />
	<connection from="976882052_201001412_201001404" to="295037238_201001404_201001399" />
	<connection from="715003095_201001860_201033024" to="19345439_201033024_201033020" />
	<connection from="715003095_201001860_201033024" to="715003095_201033024_201001860" />
	<connection from="715003095_201001860_201033024" to="19345439_201033024_201033028" />
	<connection from="19344197_201019250_201019253" to="19344197_201019253_201019250" />
	<connection from="19346853_201051171_201051157" to="19346853_201051157_201051171" />
	<connection from="19346853_201051171_201051157" to="19346853_201051157_201032342" />
	<connection from="19346853_201030186_201009095" to="19343212_201009095_201009101" />
	<connection from="19346853_201030186_201009095" to="19346853_201009095_201037413" />
	<connection from="19346853_201030186_201009095" to="19346853_201009095_201030186" />
	<connection from="19344187_201019146_201001366" to="19344187_201001366_201019146" />
	<connection from="19344187_201019146_201001366" to="295037238_201001366_201001362" />
	<connection from="19344187_201019146_201001366" to="295037238_201001366_201001370" />
	<connection from="796793282_201044926_7451723649" to="796793282_7451723649_201025068" />
	<connection from="796793282_201044926_7451723649" to="796793281_7451723649_201034460" />
	<connection from="295037238_201001370_201001366" to="19344187_201001366_201019146" />
	<connection from="295037238_201001370_201001366" to="295037238_201001366_201001362" />
	<connection from="295037238_201001370_201001366" to="295037238_201001366_201001370" />
	<connection from="92384070_201015572_201015567" to="92384070_201015567_201015558" />
	<connection from="19342598_201001388_201001616" to="19342598_201001616_201001892" />
	<connection from="19342598_201001388_201001616" to="19342598_201001616_201001388" />
	<connection from="19342598_201001388_201001616" to="19342576_201001616_201001602" />
	<connection from="19342598_201001388_201001616" to="19342576_201001616_201001633" />
	<connection from="19347105_201001346_201051157" to="19346853_201051157_201051171" />
	<connection from="19347105_201001346_201051157" to="19346853_201051157_201032342" />
	<connection from="19346373_201045509_201001404" to="976882052_201001404_201001412" />
	<connection from="19346373_201045509_201001404" to="976882051_201001404_201045548" />
	<connection from="19346373_201045509_201001404" to="295037238_201001404_201001399" />
	<connection from="19345358_201032227_201032214" to="19346349_201032214_201045284" />
	<connection from="19345358_201032227_201032214" to="19346349_201032214_201019250" />
	<connection from="19345358_201032227_201032214" to="19345358_201032214_201032227" />
	<connection from="19345972_201015220_201040442" to="19345972_201040442_201015220" />
	<connection from="19345972_201015220_201040442" to="19346080_201040442_201041758" />
	<connection from="19345972_201015220_201040442" to="19345972_201040442_201001358" />
	<connection from="19347030_201001870_201011602" to="19343520_201011602_201011615" />
	<connection from="19347030_201001870_201011602" to="19347030_201011602_201001870" />
	<connection from="19347030_201001870_201011602" to="19347030_201011602_201046299" />
	<connection from="661055483_201037960_201015229" to="661055483_201015229_201037952" />
	<connection from="661055483_201037960_201015229" to="661055483_201015229_201037960" />
	<connection from="19346743_201049707_201045284" to="19346676_201045284_201049246" />
	<connection from="19346743_201049707_201045284" to="19346743_201045284_201049707" />
	<connection from="19346743_201049707_201045284" to="19346349_201045284_201032214" />
	<connection from="19346743_201049707_201045284" to="19346349_201045284_201015575" />
	<connection from="92385002_6755735045_201015604" to="92385002_201015604_201015575" />
	<connection from="92385002_6755735045_201015604" to="92385002_201015604_6755735045" />
	<connection from="92385002_201015604_201015575" to="661055482_201015575_201015572" />
	<connection from="92385002_201015604_201015575" to="19346349_201015575_201045284" />
	<connection from="92385002_201015604_201015575" to="19345355_201015575_201032189" />
	<connection from="92385002_201015604_201015575" to="92385002_201015575_201015604" />
	<connection from="19345807_201033005_201037938" to="19345807_201037938_201033005" />
	<connection from="19345807_201033005_201037938" to="19346853_201037938_201034455" />
	<connection from="19345807_201033005_201037938" to="19345807_201037938_201025008" />
	<connection from="19346676_201045284_201049246" to="19346676_201049246_201045284" />
	<connection from="295037238_201001362_201001366" to="19344187_201001366_201019146" />
	<connection from="295037238_201001362_201001366" to="295037238_201001366_201001362" />
	<connection from="295037238_201001362_201001366" to="295037238_201001366_201001370" />
	<connection from="661055483_201014995_201037970" to="19346813_201037970_9817745991" />
	<connection from="661055483_201014995_201037970" to="661055483_201037970_201037960" />
	<connection from="661055483_201014995_201037970" to="661055483_201037970_201014995" />
	<connection from="19344939_201027144_201027138" to="19347395_201027138_201037944" />
	<connection from="19344939_201027144_201027138" to="19344939_201027138_201027144" />
	<connection from="19346349_201045284_201015575" to="661055482_201015575_201015572" />
	<connection from="19346349_201045284_201015575" to="19346349_201015575_201045284" />
	<connection from="19346349_201045284_201015575" to="19345355_201015575_201032189" />
	<connection from="19346349_201045284_201015575" to="92385002_201015575_201015604" />
	<connection from="19346676_201049246_201045284" to="19346676_201045284_201049246" />
	<connection from="19346676_201049246_201045284" to="19346743_201045284_201049707" />
	<connection from="19346676_201049246_201045284" to="19346349_201045284_201032214" />
	<connection from="19346676_201049246_201045284" to="19346349_201045284_201015575" />
	<connection from="19345439_201033020_201033005" to="19345807_201033005_201037938" />
	<connection from="19345439_201033020_201033005" to="19345807_201033005_201001851" />
	<connection from="19345439_201033020_201033005" to="19345439_201033005_201033020" />
	<connection from="19345374_201032342_201001340" to="295037238_201001340_201001346" />
	<connection from="19345374_201032342_201001340" to="295037238_201001340_201004696" />
	<connection from="19345374_201032342_201001340" to="19346439_201001340_201041758" />
	<connection from="295037238_201001354_201001346" to="295037238_201001346_201001340" />
	<connection from="295037238_201001354_201001346" to="295037238_201001346_201001354" />
	<connection from="295037238_201001354_201001346" to="19347105_201001346_201051157" />
	<connection from="92385002_201015695_201015710" to="92385002_201015710_201015507" />
	<connection from="92385002_201015695_201015710" to="92385002_201015710_201015695" />
	<connection from="295037238_201001377_201001370" to="295037238_201001370_201001366" />
	<connection from="295037238_201001377_201001370" to="295037238_201001370_201001377" />
	<connection from="295037238_201001377_201001370" to="19344015_201001370_201017581" />
	<connection from="19346373_201045519_201045509" to="19346373_201045509_201001404" />
	<connection from="19345817_201038281_201037218" to="19345749_201037218_201037213" />
	<connection from="19345817_201038281_201037218" to="19346275_201037218_201001892" />
	<connection from="19345817_201038281_201037218" to="19345817_201037218_201038281" />
	<connection from="19342598_201001616_201001388" to="19346038_201001388_201041328" />
	<connection from="19342598_201001616_201001388" to="295037238_201001388_201001377" />
	<connection from="19342598_201001616_201001388" to="295037238_201001388_201001399" />
	<connection from="19342598_201001616_201001388" to="19342598_201001388_201001616" />
	<connection from="19347099_201033040_8548256579" to="19347099_8548256579_201033040" />
	<connection from="19346743_201045284_201049707" to="19346743_201049707_201045284" />
	<connection from="19347030_201053195_201053192" to="19347395_201053192_201027138" />