<nodes>
	<node id="201001310" x="310161.21" y="4622356.51" z="0.00" type="priority" />
	<node id="201001328" x="310309.08" y="4622338.58" z="0.00" type="priority" />
	<node id="201001340" x="310342.81" y="4622333.75" z="0.00" type="priority" />
	<node id="201001346" x="310398.75" y="4622325.87" z="0.00" type="priority" />
	<node id="201001354" x="310465.23" y="4622315.95" z="0.00" type="priority" />
	<node id="201001358" x="310476.53" y="4622314.54" z="0.00" type="priority" />
	<node id="201001362" x="310556.27" y="4622302.42" z="0.00" type="priority" />
	<node id="201001366" x="310607.44" y="4622295.10" z="0.00" type="priority" />
	<node id="201001370" x="310660.73" y="4622287.14" z="0.00" type="priority" />
	<node id="201001377" x="310729.35" y="4622274.45" z="0.00" type="priority" />
	<node id="201001388" x="310834.89" y="4622258.55" z="0.00" type="priority" />
	<node id="201001399" x="310986.71" y="4622236.98" z="0.00" type="priority" />
	<node id="201001404" x="311139.20" y="4622214.96" z="0.00" type="traffic_light" />
	<node id="201001412" x="311225.27" y="4622202.46" z="0.00" type="traffic_light" />
	<node id="201001602" x="310737.09" y="4622400.47" z="0.00" type="priority" />
	<node id="201001616" x="310850.28" y="4622334.03" z="0.00" type="priority" />
	<node id="201001633" x="310896.15" y="4622315.49" z="0.00" type="priority" />
	<node id="201001851" x="310134.06" y="4622553.45" z="0.00" type="priority" />
	<node id="201001855" x="310036.65" y="4622568.04" z="0.00" type="priority" />
	<node id="201001860" x="309986.69" y="4622576.47" z="0.00" type="priority" />
	<node id="201001870" x="309940.53" y="4622584.03" z="0.00" type="priority" />
	<node id="201001892" x="310874.22" y="4622398.96" z="0.00" type="priority" />
	<node id="201004696" x="310322.49" y="4622336.92" z="0.00" type="priority" />
	<node id="201008621" x="309961.82" y="4621853.02" z="0.00" type="priority" />
	<node id="201008632" x="310103.55" y="4621905.48" z="0.00" type="priority" />
	<node id="201009095" x="310692.12" y="4622380.55" z="0.00" type="priority" />
	<node id="201009101" x="310687.44" y="4622420.45" z="0.00" type="priority" />
	<node id="201009688" x="310428.94" y="4621812.57" z="0.00" type="priority" />
	<node id="201009709" x="310415.17" y="4621552.23" z="0.00" type="priority" />
	<node id="201011602" x="309940.11" y="4622590.04" z="0.00" type="priority" />
	<node id="201011615" x="309788.52" y="4622606.85" z="0.00" type="priority" />
	<node id="201014638" x="310975.41" y="4622505.51" z="0.00" type="priority" />
	<node id="201014645" x="310844.13" y="4622582.98" z="0.00" type="priority" />
	<node id="201014995" x="310207.27" y="4622056.50" z="0.00" type="priority" />
	<node id="201015005" x="310121.09" y="4622042.46" z="0.00" type="priority" />
	<node id="201015009" x="310082.22" y="4622036.49" z="0.00" type="priority" />
	<node id="201015022" x="309955.32" y="4622015.97" z="0.00" type="priority" />
	<node id="201015206" x="310366.94" y="4622139.05" z="0.00" type="priority" />
	<node id="201015220" x="310497.75" y="4622115.47" z="0.00" type="priority" />
	<node id="201015229" x="310191.62" y="4622163.03" z="0.00" type="priority" />
	<node id="201015236" x="310315.51" y="4622149.13" z="0.00" type="priority" />
	<node id="201015507" x="311565.91" y="4618810.51" z="0.00" type="priority" />
	<node id="201015547" x="311245.96" y="4622409.47" z="0.00" type="priority" />
	<node id="201015558" x="311202.29" y="4621983.73" z="0.00" type="traffic_light" />
	<node id="201015567" x="311191.18" y="4621876.03" z="0.00" type="priority" />
	<node id="201015572" x="311183.51" y="4621825.01" z="0.00" type="priority" />
	<node id="201015575" x="311184.84" y="4621781.75" z="0.00" type="traffic_light" />
	<node id="201015604" x="311240.72" y="4621320.39" z="0.00" type="traffic_light" />
	<node id="201015637" x="311303.88" y="4620824.51" z="0.00" type="traffic_light" />
	<node id="201015695" x="311413.18" y="4620008.52" z="0.00" type="traffic_light" />
	<node id="201015710" x="311471.14" y="4619553.55" z="0.00" type="traffic_light" />
	<node id="201016258" x="310059.21" y="4622820.86" z="0.00" type="priority" />
	<node id="201016266" x="310032.06" y="4622535.70" z="0.00" type="priority" />
	<node id="201016922" x="310349.92" y="4621474.50" z="0.00" type="priority" />
	<node id="201017581" x="310679.87" y="4622159.54" z="0.00" type="priority" />
	<node id="201019146" x="310623.52" y="4622188.03" z="0.00" type="priority" />
	<node id="201019250" x="310868.07" y="4621814.69" z="0.00" type="priority" />
	<node id="201019253" x="310869.95" y="4621660.96" z="0.00" type="priority" />
	<node id="201022348" x="310221.38" y="4621967.02" z="0.00" type="priority" />
	<node id="201022353" x="310134.70" y="4621956.54" z="0.00" type="priority" />
	<node id="201022356" x="310095.88" y="4621952.01" z="0.00" type="priority" />
	<node id="201022360" x="309958.25" y="4621935.00" z="0.00" type="priority" />
	<node id="201025008" x="310160.12" y="4622362.53" z="0.00" type="priority" />
	<node id="201025022" x="310014.86" y="4622376.28" z="0.00" type="priority" />
	<node id="201025029" x="309940.18" y="4622383.60" z="0.00" type="priority" />
	<node id="201025037" x="309855.13" y="4622395.97" z="0.00" type="priority" />
	<node id="201025068" x="310344.53" y="4622539.98" z="0.00" type="priority" />
	<node id="201025071" x="310349.46" y="4622653.96" z="0.00" type="priority" />
	<node id="201026814" x="310392.75" y="4622538.03" z="0.00" type="priority" />
	<node id="201026817" x="310400.30" y="4622631.50" z="0.00" type="priority" />
	<node id="201027138" x="310062.74" y="4622271.45" z="0.00" type="priority" />
	<node id="201027144" x="310059.35" y="4622225.32" z="0.00" type="priority" />
	<node id="201027146" x="310052.62" y="4622166.05" z="0.00" type="priority" />
	<node id="201030081" x="310582.86" y="4621908.43" z="0.00" type="priority" />
	<node id="201030085" x="310584.97" y="4621819.14" z="0.00" type="priority" />
	<node id="201030186" x="310700.39" y="4622381.55" z="0.00" type="priority" />
	<node id="201032189" x="311579.84" y="4621748.64" z="0.00" type="priority" />
	<node id="201032214" x="310938.39" y="4621808.07" z="0.00" type="priority" />
	<node id="201032227" x="310943.50" y="4621344.46" z="0.00" type="priority" />
	<node id="201032309" x="310104.98" y="4622160.89" z="0.00" type="priority" />
	<node id="201032315" x="310141.11" y="4621909.48" z="0.00" type="priority" />
	<node id="201032342" x="310350.01" y="4622389.05" z="0.00" type="priority" />
	<node id="201032855" x="310465.69" y="4621813.78" z="0.00" type="priority" />
	<node id="201032862" x="310458.75" y="4621959.83" z="0.00" type="priority" />
	<node id="201033005" x="310150.47" y="4622428.46" z="0.00" type="traffic_light" />
	<node id="201033020" x="310020.02" y="4622443.03" z="0.00" type="priority" />
	<node id="201033024" x="309987.09" y="4622447.46" z="0.00" type="priority" />
	<node id="201033028" x="309938.96" y="4622452.96" z="0.00" type="priority" />
	<node id="201033040" x="309852.16" y="4622472.28" z="0.00" type="priority" />
	<node id="201034455" x="310232.24" y="4622401.51" z="0.00" type="priority" />
	<node id="201034460" x="310246.65" y="4622584.02" z="0.00" type="priority" />
	<node id="201035156" x="309914.46" y="4622974.84" z="0.00" type="priority" />
	<node id="201036413" x="309990.07" y="4622895.05" z="0.00" type="priority" />
	<node id="201037211" x="310994.34" y="4622573.01" z="0.00" type="priority" />
	<node id="201037213" x="310960.29" y="4622437.02" z="0.00" type="priority" />
	<node id="201037218" x="310932.00" y="4622374.54" z="0.00" type="priority" />
	<node id="201037413" x="310560.87" y="4622376.34" z="0.00" type="priority" />
	<node id="201037907" x="309941.90" y="4622945.56" z="0.00" type="traffic_light" />
	<node id="201037926" x="310116.09" y="4622666.48" z="0.00" type="priority" />
	<node id="201037933" x="310126.37" y="4622605.01" z="0.00" type="priority" />
	<node id="201037938" x="310152.99" y="4622407.50" z="0.00" type="priority" />
	<node id="201037940" x="310168.81" y="4622306.97" z="0.00" type="priority" />
	<node id="201037944" x="310176.70" y="4622257.54" z="0.00" type="priority" />
	<node id="201037948" x="310178.09" y="4622249.06" z="0.00" type="priority" />
	<node id="201037952" x="310184.01" y="4622212.68" z="0.00" type="priority" />
	<node id="201037960" x="310193.50" y="4622151.31" z="0.00" type="priority" />
	<node id="201037970" x="310205.26" y="4622072.95" z="0.00" type="priority" />
	<node id="201037977" x="310227.11" y="4621919.53" z="0.00" type="priority" />
	<node id="201037990" x="310235.69" y="4621804.87" z="0.00" type="priority" />
	<node id="201037994" x="310238.19" y="4621690.46" z="0.00" type="traffic_light" />
	<node id="201038281" x="311011.21" y="4622345.00" z="0.00" type="priority" />
	<node id="201040442" x="310486.99" y="4622211.98" z="0.00" type="priority" />
	<node id="201040545" x="311053.03" y="4622535.46" z="0.00" type="priority" />
	<node id="201040778" x="309963.60" y="4621775.97" z="0.00" type="priority" />
	<node id="201040805" x="310148.19" y="4621815.51" z="0.00" type="priority" />
	<node id="201041328" x="310825.37" y="4622185.03" z="0.00" type="priority" />
	<node id="201041337" x="310367.97" y="4622539.02" z="0.00" type="priority" />
	<node id="201041742" x="310315.28" y="4622250.64" z="0.00" type="priority" />
	<node id="201041758" x="310346.57" y="4622234.03" z="0.00" type="priority" />
	<node id="201044481" x="310765.66" y="4622448.49" z="0.00" type="priority" />
	<node id="201044808" x="309940.16" y="4622545.04" z="0.00" type="priority" />
	<node id="201044811" x="309845.24" y="4622556.01" z="0.00" type="priority" />
	<node id="201044926" x="310241.64" y="4622548.20" z="0.00" type="priority" />
	<node id="201044957" x="310546.21" y="4622605.52" z="0.00" type="priority" />
	<node id="201045231" x="310063.43" y="4622164.99" z="0.00" type="priority" />
	<node id="201045236" x="310074.11" y="4622088.48" z="0.00" type="priority" />
	<node id="201045256" x="310355.13" y="4621808.36" z="0.00" type="priority" />
	<node id="201045259" x="310526.91" y="4621816.38" z="0.00" type="priority" />
	<node id="201045284" x="311057.53" y="4621792.00" z="0.00" type="priority" />
	<node id="201045498" x="311207.33" y="4622437.49" z="0.00" type="priority" />
	<node id="201045509" x="311183.68" y="4622434.01" z="0.00" type="priority" />
	<node id="201045519" x="311172.03" y="4622463.36" z="0.00" type="priority" />
	<node id="201045548" x="311116.83" y="4621991.99" z="0.00" type="priority" />
	<node id="201045577" x="311143.89" y="4621881.16" z="0.00" type="priority" />
	<node id="201046299" x="309940.85" y="4622643.02" z="0.00" type="priority" />
	<node id="201046307" x="309880.67" y="4622648.96" z="0.00" type="priority" />
	<node id="201047008" x="309941.88" y="4622334.11" z="0.00" type="priority" />
	<node id="201047011" x="309870.73" y="4622342.22" z="0.00" type="priority" />
	<node id="201049246" x="311082.25" y="4621331.46" z="0.00" type="priority" />
	<node id="201049680" x="310797.96" y="4622517.97" z="0.00" type="priority" />
	<node id="201049707" x="311065.18" y="4621883.13" z="0.00" type="priority" />
	<node id="201051157" x="310405.12" y="4622383.04" z="0.00" type="priority" />
	<node id="201051171" x="310469.15" y="4622377.45" z="0.00" type="priority" />
	<node id="201051214" x="310927.90" y="4622653.98" z="0.00" type="traffic_light" />
	<node id="201051231" x="310907.15" y="4622709.53" z="0.00" type="priority" />
	<node id="201052214" x="310285.47" y="4622640.72" z="0.00" type="priority" />
	<node id="201053192" x="309944.73" y="4622284.47" z="0.00" type="priority" />
	<node id="201053195" x="309948.57" y="4622177.59" z="0.00" type="priority" />
	<node id="201053198" x="309952.92" y="4622069.48" z="0.00" type="priority" />
	<node id="201053200" x="309968.97" y="4621646.05" z="0.00" type="priority" />
	<node id="201055982" x="310520.59" y="4621928.08" z="0.00" type="priority" />
	<node id="201057259" x="311178.85" y="4622563.02" z="0.00" type="priority" />
	<node id="457786434" x="310272.63" y="4620291.87" z="0.00" type="priority" />
	<node id="6755735045" x="311254.76" y="4621209.95" z="0.00" type="traffic_light" />
	<node id="6766419673" x="310514.31" y="4621984.76" z="0.00" type="priority" />
	<node id="7451723649" x="310243.70" y="4622548.01" z="0.00" type="priority" />
	<node id="8548256579" x="309843.72" y="4622524.13" z="0.00" type="priority" />
	<node id="8620388691" x="309897.10" y="4622183.57" z="0.00" type="priority" />
	<node id="8777152451" x="310253.00" y="4622717.74" z="0.00" type="priority" />
	<node id="9817745991" x="310319.32" y="4622054.24" z="0.00" type="priority" />
</nodes>
